* Copyright 2022 GlobalFoundries PDK Authors
*
* Licensed under the Apache License, Version 2.0 (the "License");
* you may not use this file except in compliance with the License.
* You may obtain a copy of the License at
*
*     http://www.apache.org/licenses/LICENSE-2.0
*
* Unless required by applicable law or agreed to in writing, software
* distributed under the License is distributed on an "AS IS" BASIS,
* WITHOUT WARRANTIES OR CONDITIONS OF ANY KIND, either express or implied.
* See the License for the specific language governing permissions and
* limitations under the License.

**************************************
* Revision: 1.0
**************************************


*.SCALE METER

.SUBCKT power_route_04
** N=2 EP=0 IP=0 FDC=0
.ENDS
***************************************
.SUBCKT M1_PSUB_I01
** N=2765 EP=0 IP=0 FDC=0
.ENDS
***************************************
.SUBCKT M1_PSUB_I06
** N=2653 EP=0 IP=0 FDC=0
.ENDS
***************************************
.SUBCKT M1_PSUB$$47122476
** N=5 EP=0 IP=0 FDC=0
.ENDS
***************************************
.SUBCKT nfet_05v0_I08
** N=3 EP=0 IP=0 FDC=0
*.SEEDPROM
.ENDS
***************************************
.SUBCKT pfet_05v0_I09 1 2 3 4
** N=4 EP=4 IP=0 FDC=1
M0 2 3 1 4 pfet_05v0 L=6e-07 W=6.81e-06 AD=2.9964e-12 AS=2.9964e-12 PD=1.45e-05 PS=1.45e-05 NRD=0.0646109 NRS=0.0646109 m=1 nf=1 $X=0 $Y=0 $D=8
.ENDS
***************************************
.SUBCKT pmos_1p2$$46889004 1 2 3 4
** N=4 EP=4 IP=4 FDC=1
X0 1 2 3 4 pfet_05v0_I09 $T=-155 0 0 0 $X=-1195 $Y=-620
.ENDS
***************************************
.SUBCKT nfet_05v0_I12 1 2 3 4
** N=4 EP=4 IP=0 FDC=1
M0 2 3 1 4 nfet_05v0 L=6e-07 W=6.81e-06 AD=2.9964e-12 AS=2.9964e-12 PD=1.45e-05 PS=1.45e-05 NRD=0.0646109 NRS=0.0646109 m=1 nf=1 $X=0 $Y=0 $D=2
.ENDS
***************************************
.SUBCKT nmos_1p2$$47119404 1 2 3 4
** N=4 EP=4 IP=4 FDC=1
X0 1 2 3 4 nfet_05v0_I12 $T=-155 0 0 0 $X=-835 $Y=-620
.ENDS
***************************************
.SUBCKT ypass_gate vss 3 b d bb db ypass pcb vdd
** N=26 EP=9 IP=25 FDC=5
*.SEEDPROM
X2 bb b pcb vdd pfet_05v0_I09 $T=1240 50985 1 0 $X=200 $Y=43555
X3 bb db 3 vdd pfet_05v0_I09 $T=1250 43050 1 0 $X=210 $Y=35620
X4 b d 3 vdd pmos_1p2$$46889004 $T=1405 15300 1 0 $X=-25 $Y=7790
X5 b d ypass vss nmos_1p2$$47119404 $T=1405 24575 1 0 $X=260 $Y=17090
X6 bb db ypass vss nmos_1p2$$47119404 $T=1405 34595 1 0 $X=260 $Y=27110
.ENDS
***************************************
.SUBCKT mux821 1 2 3 4 5 6 7 8 9 13 14 15 16 17 18 19 20 21 22 23
+ 24 25 26 27 28 29 30 31 32 33 42 43 44 45 46 47 48
** N=86 EP=37 IP=165 FDC=48
*.SEEDPROM
M0 13 42 1 1 nfet_05v0 L=6e-07 W=1.14e-06 AD=2.964e-13 AS=3.99e-13 PD=2.18e-06 PS=3.11e-06 NRD=0.912281 NRS=1.22807 m=1 nf=2 $X=1510 $Y=2370 $D=2
M1 16 43 1 1 nfet_05v0 L=6e-07 W=1.14e-06 AD=2.964e-13 AS=3.99e-13 PD=2.18e-06 PS=3.11e-06 NRD=0.912281 NRS=1.22807 m=1 nf=2 $X=3750 $Y=2370 $D=2
M2 19 44 1 1 nfet_05v0 L=6e-07 W=1.14e-06 AD=2.964e-13 AS=3.99e-13 PD=2.18e-06 PS=3.11e-06 NRD=0.912281 NRS=1.22807 m=1 nf=2 $X=7705 $Y=2370 $D=2
M3 22 45 1 1 nfet_05v0 L=6e-07 W=1.14e-06 AD=2.964e-13 AS=3.99e-13 PD=2.18e-06 PS=3.11e-06 NRD=0.912281 NRS=1.22807 m=1 nf=2 $X=9945 $Y=2370 $D=2
M4 25 46 1 1 nfet_05v0 L=6e-07 W=1.14e-06 AD=2.964e-13 AS=3.99e-13 PD=2.18e-06 PS=3.11e-06 NRD=0.912281 NRS=1.22807 m=1 nf=2 $X=13895 $Y=2370 $D=2
M5 28 47 1 1 nfet_05v0 L=6e-07 W=1.14e-06 AD=2.964e-13 AS=3.99e-13 PD=2.18e-06 PS=3.11e-06 NRD=0.912281 NRS=1.22807 m=1 nf=2 $X=16135 $Y=2370 $D=2
M6 31 48 1 1 nfet_05v0 L=6e-07 W=1.14e-06 AD=2.964e-13 AS=3.99e-13 PD=2.18e-06 PS=3.11e-06 NRD=0.912281 NRS=1.22807 m=1 nf=2 $X=20090 $Y=2370 $D=2
M7 2 9 1 1 nfet_05v0 L=6e-07 W=1.14e-06 AD=2.964e-13 AS=3.99e-13 PD=2.18e-06 PS=3.11e-06 NRD=0.912281 NRS=1.22807 m=1 nf=2 $X=22330 $Y=2370 $D=2
X10 5 3 7 8 pfet_05v0_I09 $T=23310 51440 1 0 $X=22270 $Y=44010
X11 5 6 2 8 pfet_05v0_I09 $T=23320 43505 1 0 $X=22280 $Y=36075
X12 3 4 2 8 pmos_1p2$$46889004 $T=23475 15755 1 0 $X=22045 $Y=8245
X13 3 4 9 1 nmos_1p2$$47119404 $T=23475 25030 1 0 $X=22330 $Y=17545
X14 5 6 9 1 nmos_1p2$$47119404 $T=23475 35050 1 0 $X=22330 $Y=27565
X15 1 13 15 4 14 6 42 7 8 ypass_gate $T=3490 455 1 180 $X=-1160 $Y=0
X16 1 16 18 4 17 6 43 7 8 ypass_gate $T=3490 455 0 0 $X=2385 $Y=0
X17 1 19 21 4 20 6 44 7 8 ypass_gate $T=9685 455 1 180 $X=5035 $Y=0
X18 1 22 24 4 23 6 45 7 8 ypass_gate $T=9685 455 0 0 $X=8580 $Y=0
X19 1 25 27 4 26 6 46 7 8 ypass_gate $T=15875 455 1 180 $X=11225 $Y=0
X20 1 28 30 4 29 6 47 7 8 ypass_gate $T=15875 455 0 0 $X=14770 $Y=0
X21 1 31 33 4 32 6 48 7 8 ypass_gate $T=22070 455 1 180 $X=17420 $Y=0
.ENDS
***************************************
.SUBCKT pfet_05v0_I12
** N=4 EP=0 IP=0 FDC=0
*.SEEDPROM
.ENDS
***************************************
.SUBCKT nfet_05v0_I17
** N=4 EP=0 IP=0 FDC=0
*.SEEDPROM
.ENDS
***************************************
.SUBCKT nfet_05v0_I10
** N=4 EP=0 IP=0 FDC=0
*.SEEDPROM
.ENDS
***************************************
.SUBCKT pmos_1p2$$202587180
** N=4 EP=0 IP=4 FDC=0
*.SEEDPROM
.ENDS
***************************************
.SUBCKT nfet_05v0_I11
** N=4 EP=0 IP=0 FDC=0
*.SEEDPROM
.ENDS
***************************************
.SUBCKT pfet_05v0_I18 1 2 3
** N=3 EP=3 IP=0 FDC=1
M0 2 3 1 1 pfet_05v0 L=6e-07 W=3.42e-06 AD=8.892e-13 AS=1.5048e-12 PD=4.46e-06 PS=8.6e-06 NRD=0.304094 NRS=0.51462 m=1 nf=2 $X=0 $Y=0 $D=8
.ENDS
***************************************
.SUBCKT pfet_05v0_I13
** N=4 EP=0 IP=0 FDC=0
*.SEEDPROM
.ENDS
***************************************
.SUBCKT nmos_1p2$$202595372
** N=4 EP=0 IP=4 FDC=0
*.SEEDPROM
.ENDS
***************************************
.SUBCKT pmos_1p2$$202586156
** N=3 EP=0 IP=4 FDC=0
*.SEEDPROM
.ENDS
***************************************
.SUBCKT nmos_1p2$$202596396
** N=4 EP=0 IP=4 FDC=0
*.SEEDPROM
.ENDS
***************************************
.SUBCKT pfet_05v0_I08
** N=4 EP=0 IP=0 FDC=0
*.SEEDPROM
.ENDS
***************************************
.SUBCKT nfet_05v0_I13
** N=4 EP=0 IP=0 FDC=0
*.SEEDPROM
.ENDS
***************************************
.SUBCKT wen_wm1 vss wep 3 4 5 6 7 8 9 10 11 12 13 men vdd wen GWEN 18 19
** N=43 EP=19 IP=113 FDC=31
M0 3 wen vss vss nfet_05v0 L=6e-07 W=9.6e-07 AD=2.496e-13 AS=4.224e-13 PD=1.48e-06 PS=2.8e-06 NRD=0.270833 NRS=0.458333 m=1 nf=1 $X=1765 $Y=5060 $D=2
M1 6 men vss vss nfet_05v0 L=6e-07 W=1.37e-06 AD=3.562e-13 AS=6.028e-13 PD=1.89e-06 PS=3.62e-06 NRD=0.189781 NRS=0.321168 m=1 nf=1 $X=1765 $Y=8905 $D=2
M2 vss GWEN 3 vss nfet_05v0 L=6e-07 W=9.6e-07 AD=4.224e-13 AS=2.496e-13 PD=2.8e-06 PS=1.48e-06 NRD=0.458333 NRS=0.270833 m=1 nf=1 $X=2885 $Y=5060 $D=2
M3 vss vss 6 vss nfet_05v0 L=6e-07 W=1.37e-06 AD=6.028e-13 AS=3.562e-13 PD=3.62e-06 PS=1.89e-06 NRD=0.321168 NRS=0.189781 m=1 nf=1 $X=2885 $Y=8905 $D=2
M4 4 3 vss vss nfet_05v0 L=6e-07 W=9.6e-07 AD=4.224e-13 AS=4.224e-13 PD=2.8e-06 PS=2.8e-06 NRD=0.458333 NRS=0.458333 m=1 nf=1 $X=5125 $Y=4650 $D=2
M5 5 6 vss vss nfet_05v0 L=6e-07 W=9.6e-07 AD=4.224e-13 AS=4.224e-13 PD=2.8e-06 PS=2.8e-06 NRD=0.458333 NRS=0.458333 m=1 nf=1 $X=5125 $Y=9315 $D=2
M6 9 6 4 vss nfet_05v0 L=6e-07 W=2.27e-06 AD=9.988e-13 AS=9.988e-13 PD=5.42e-06 PS=5.42e-06 NRD=0.193833 NRS=0.193833 m=1 nf=1 $X=7660 $Y=8385 $D=2
M7 7 10 vss vss nfet_05v0 L=6e-07 W=1.37e-06 AD=6.028e-13 AS=6.028e-13 PD=3.62e-06 PS=3.62e-06 NRD=0.321168 NRS=0.321168 m=1 nf=1 $X=8920 $Y=4240 $D=2
M8 11 5 9 vss nfet_05v0 L=6e-07 W=9.6e-07 AD=2.496e-13 AS=4.224e-13 PD=1.48e-06 PS=2.8e-06 NRD=0.270833 NRS=0.458333 m=1 nf=1 $X=9970 $Y=9700 $D=2
M9 vss 12 11 vss nfet_05v0 L=6e-07 W=9.6e-07 AD=4.224e-13 AS=2.496e-13 PD=2.8e-06 PS=1.48e-06 NRD=0.458333 NRS=0.270833 m=1 nf=1 $X=11090 $Y=9700 $D=2
M10 vss 9 12 vss nfet_05v0 L=6e-07 W=9.6e-07 AD=2.496e-13 AS=4.224e-13 PD=1.48e-06 PS=2.8e-06 NRD=0.270833 NRS=0.458333 m=1 nf=1 $X=13330 $Y=9700 $D=2
M11 13 12 vss vss nfet_05v0 L=6e-07 W=9.6e-07 AD=4.224e-13 AS=2.496e-13 PD=2.8e-06 PS=1.48e-06 NRD=0.458333 NRS=0.270833 m=1 nf=1 $X=14450 $Y=9700 $D=2
M12 wep 7 vss vss nfet_05v0 L=6e-07 W=2.4e-06 AD=7.68e-13 AS=7.68e-13 PD=5.12e-06 PS=5.12e-06 NRD=1.2 NRS=1.2 m=1 nf=3 $X=12720 $Y=4810 $D=2
M13 vss 13 8 vss nfet_05v0 L=6e-07 W=1.37e-06 AD=6.028e-13 AS=6.028e-13 PD=3.62e-06 PS=3.62e-06 NRD=0.321168 NRS=0.321168 m=1 nf=1 $X=17810 $Y=9290 $D=2
M14 men 8 10 vss nfet_05v0 L=6e-07 W=4.54e-06 AD=1.1804e-12 AS=1.589e-12 PD=5.58e-06 PS=8.21e-06 NRD=0.229075 NRS=0.30837 m=1 nf=2 $X=20050 $Y=8385 $D=2
M15 vss 13 10 vss nfet_05v0 L=6e-07 W=2.27e-06 AD=9.988e-13 AS=5.902e-13 PD=5.42e-06 PS=2.79e-06 NRD=0.193833 NRS=0.114537 m=1 nf=1 $X=22290 $Y=8385 $D=2
M16 18 wen vdd vdd pfet_05v0 L=6e-07 W=2.27e-06 AD=5.902e-13 AS=9.988e-13 PD=2.79e-06 PS=5.42e-06 NRD=0.114537 NRS=0.193833 m=1 nf=1 $X=1765 $Y=600 $D=8
M17 19 men vdd vdd pfet_05v0 L=6e-07 W=2.27e-06 AD=5.902e-13 AS=9.988e-13 PD=2.79e-06 PS=5.42e-06 NRD=0.114537 NRS=0.193833 m=1 nf=1 $X=1765 $Y=12055 $D=8
M18 3 GWEN 18 vdd pfet_05v0 L=6e-07 W=2.27e-06 AD=9.988e-13 AS=5.902e-13 PD=5.42e-06 PS=2.79e-06 NRD=0.193833 NRS=0.114537 m=1 nf=1 $X=2885 $Y=600 $D=8
M19 6 vss 19 vdd pfet_05v0 L=6e-07 W=2.27e-06 AD=9.988e-13 AS=5.902e-13 PD=5.42e-06 PS=2.79e-06 NRD=0.193833 NRS=0.114537 m=1 nf=1 $X=2885 $Y=12055 $D=8
M20 4 3 vdd vdd pfet_05v0 L=6e-07 W=2.27e-06 AD=9.988e-13 AS=9.988e-13 PD=5.42e-06 PS=5.42e-06 NRD=0.193833 NRS=0.193833 m=1 nf=1 $X=5125 $Y=600 $D=8
M21 5 6 vdd vdd pfet_05v0 L=6e-07 W=2.27e-06 AD=9.988e-13 AS=9.988e-13 PD=5.42e-06 PS=5.42e-06 NRD=0.193833 NRS=0.193833 m=1 nf=1 $X=5125 $Y=12055 $D=8
M22 9 5 4 vdd pfet_05v0 L=6e-07 W=2.27e-06 AD=1.17084e-12 AS=9.988e-13 PD=4.78598e-06 PS=5.42e-06 NRD=0.22722 NRS=0.193833 m=1 nf=1 $X=7660 $Y=12055 $D=8
M23 11 6 9 vdd pfet_05v0 L=6e-07 W=9.6e-07 AD=-6.87097e-13 AS=-6.48697e-13 PD=-2.78573e-06 PS=-2.70573e-06 NRD=-0.745548 NRS=-0.703882 m=1 nf=1 $X=9395 $Y=12055 $D=8
M24 vdd 12 11 vdd pfet_05v0 L=6e-07 W=2.27e-06 AD=9.988e-13 AS=1.14386e-12 PD=5.42e-06 PS=4.72975e-06 NRD=0.193833 NRS=0.221983 m=1 nf=1 $X=11090 $Y=12055 $D=8
M25 vdd 9 12 vdd pfet_05v0 L=6e-07 W=2.27e-06 AD=5.902e-13 AS=9.988e-13 PD=2.79e-06 PS=5.42e-06 NRD=0.114537 NRS=0.193833 m=1 nf=1 $X=13330 $Y=12055 $D=8
M26 13 12 vdd vdd pfet_05v0 L=6e-07 W=2.27e-06 AD=9.988e-13 AS=5.902e-13 PD=5.42e-06 PS=2.79e-06 NRD=0.193833 NRS=0.114537 m=1 nf=1 $X=14450 $Y=12055 $D=8
M27 wep 7 vdd vdd pfet_05v0 L=6e-07 W=6e-06 AD=1.92e-12 AS=1.92e-12 PD=9.92e-06 PS=9.92e-06 NRD=0.48 NRS=0.48 m=1 nf=3 $X=12720 $Y=870 $D=8
M28 men 13 10 vdd pfet_05v0 L=6e-07 W=4.54e-06 AD=1.1804e-12 AS=1.9976e-12 PD=5.58e-06 PS=1.084e-05 NRD=0.229075 NRS=0.387665 m=1 nf=2 $X=20050 $Y=12055 $D=8
X48 vdd 7 10 pfet_05v0_I18 $T=8920 2870 1 0 $X=7880 $Y=540
X49 vdd 8 13 pfet_05v0_I18 $T=16690 12625 0 0 $X=15650 $Y=12005
.ENDS
***************************************
.SUBCKT M1_PSUB$$44997676
** N=7 EP=0 IP=0 FDC=0
.ENDS
***************************************
.SUBCKT pfet_05v0_I07
** N=6 EP=0 IP=0 FDC=0
*.SEEDPROM
.ENDS
***************************************
.SUBCKT pmos_1p2$$46286892
** N=5 EP=0 IP=6 FDC=0
*.SEEDPROM
.ENDS
***************************************
.SUBCKT nfet_05v0_I06 1 2 3 4
** N=4 EP=4 IP=0 FDC=1
M0 2 3 1 4 nfet_05v0 L=6e-07 W=1.135e-05 AD=3.3596e-12 AS=3.3596e-12 PD=1.658e-05 PS=1.658e-05 NRD=0.651982 NRS=0.651982 m=1 nf=5 $X=0 $Y=0 $D=2
.ENDS
***************************************
.SUBCKT pfet_05v0_I16 1 2 3 4 5
** N=6 EP=5 IP=0 FDC=2
M0 2 4 1 2 pfet_05v0 L=6e-07 W=1.2e-06 AD=3.12e-13 AS=5.28e-13 PD=1.72e-06 PS=3.28e-06 NRD=0.216667 NRS=0.366667 m=1 nf=1 $X=0 $Y=0 $D=8
M1 3 5 2 2 pfet_05v0 L=6e-07 W=1.2e-06 AD=5.28e-13 AS=3.12e-13 PD=3.28e-06 PS=1.72e-06 NRD=0.366667 NRS=0.216667 m=1 nf=1 $X=1120 $Y=0 $D=8
.ENDS
***************************************
.SUBCKT nfet_05v0_I03 1 2 3 4 5
** N=5 EP=5 IP=0 FDC=2
M0 2 4 1 2 nfet_05v0 L=6e-07 W=6e-07 AD=1.56e-13 AS=2.64e-13 PD=1.12e-06 PS=2.08e-06 NRD=0.433333 NRS=0.733333 m=1 nf=1 $X=0 $Y=0 $D=2
M1 3 5 2 2 nfet_05v0 L=6e-07 W=6e-07 AD=2.64e-13 AS=1.56e-13 PD=2.08e-06 PS=1.12e-06 NRD=0.733333 NRS=0.433333 m=1 nf=1 $X=1120 $Y=0 $D=2
.ENDS
***************************************
.SUBCKT pmos_1p2$$46285868
** N=4 EP=0 IP=4 FDC=0
*.SEEDPROM
.ENDS
***************************************
.SUBCKT pmos_1p2$$46281772
** N=5 EP=0 IP=0 FDC=0
*.SEEDPROM
.ENDS
***************************************
.SUBCKT pfet_05v0_I10
** N=4 EP=0 IP=0 FDC=0
*.SEEDPROM
.ENDS
***************************************
.SUBCKT nfet_05v0_I05 1 2 3 4
** N=4 EP=4 IP=0 FDC=1
M0 2 3 1 4 nfet_05v0 L=6e-07 W=6e-07 AD=2.64e-13 AS=2.64e-13 PD=2.08e-06 PS=2.08e-06 NRD=0.733333 NRS=0.733333 m=1 nf=1 $X=0 $Y=0 $D=2
.ENDS
***************************************
.SUBCKT nfet_05v0_I21
** N=6 EP=0 IP=0 FDC=0
*.SEEDPROM
.ENDS
***************************************
.SUBCKT sacntl_2 vss 2 pcb 4 5 6 7 8 9 10 11 18 19 20 21 22 23 24 25 26
+ se vdd men
** N=54 EP=23 IP=83 FDC=39
M0 2 11 vss vss nfet_05v0 L=6e-07 W=2.28e-06 AD=5.928e-13 AS=1.0032e-12 PD=3.32e-06 PS=6.32e-06 NRD=0.45614 NRS=0.77193 m=1 nf=2 $X=795 $Y=26115 $D=2
M1 4 men vss vss nfet_05v0 L=6e-07 W=5.7e-06 AD=1.6872e-12 AS=1.6872e-12 PD=9.8e-06 PS=9.8e-06 NRD=1.29825 NRS=1.29825 m=1 nf=5 $X=855 $Y=4275 $D=2
M2 vss 10 pcb vss nfet_05v0 L=6e-07 W=1.589e-05 AD=4.54e-12 AS=4.54e-12 PD=2.216e-05 PS=2.216e-05 NRD=0.881057 NRS=0.881057 m=1 nf=7 $X=1950 $Y=9235 $D=2
M3 5 4 vss vss nfet_05v0 L=6e-07 W=2.86e-06 AD=7.436e-13 AS=1.2584e-12 PD=3.38e-06 PS=6.6e-06 NRD=0.0909091 NRS=0.153846 m=1 nf=1 $X=10910 $Y=8645 $D=2
M4 6 11 5 vss nfet_05v0 L=6e-07 W=2.86e-06 AD=0 AS=0 PD=0 PS=0 NRD=0 NRS=0 m=1 nf=1 $X=12030 $Y=8645 $D=2
M5 7 19 6 vss nfet_05v0 L=6e-07 W=2.86e-06 AD=0 AS=0 PD=0 PS=0 NRD=0 NRS=0 m=1 nf=1 $X=13150 $Y=8645 $D=2
M6 8 19 7 vss nfet_05v0 L=6e-07 W=2.86e-06 AD=0 AS=0 PD=0 PS=0 NRD=0 NRS=0 m=1 nf=1 $X=14270 $Y=8645 $D=2
M7 9 11 8 vss nfet_05v0 L=6e-07 W=2.86e-06 AD=0 AS=0 PD=0 PS=0 NRD=0 NRS=0 m=1 nf=1 $X=15390 $Y=8645 $D=2
M8 vss 4 9 vss nfet_05v0 L=6e-07 W=2.86e-06 AD=1.2584e-12 AS=7.436e-13 PD=6.6e-06 PS=3.38e-06 NRD=0.153846 NRS=0.0909091 m=1 nf=1 $X=16510 $Y=8645 $D=2
M9 10 7 vss vss nfet_05v0 L=6e-07 W=5.22e-06 AD=1.3572e-12 AS=2.2968e-12 PD=6.26e-06 PS=1.22e-05 NRD=0.199234 NRS=0.337165 m=1 nf=2 $X=18750 $Y=8895 $D=2
M10 11 20 vss vss nfet_05v0 L=6e-07 W=1.44e-06 AD=6.336e-13 AS=6.336e-13 PD=3.76e-06 PS=3.76e-06 NRD=0.305556 NRS=0.305556 m=1 nf=1 $X=21255 $Y=4090 $D=2
M11 se 19 vss vss nfet_05v0 L=6e-07 W=9.08e-06 AD=2.3608e-12 AS=3.178e-12 PD=1.116e-05 PS=1.642e-05 NRD=0.45815 NRS=0.61674 m=1 nf=4 $X=19460 $Y=25030 $D=2
M12 2 11 vdd vdd pfet_05v0 L=6e-07 W=6.82e-06 AD=1.7732e-12 AS=3.0008e-12 PD=7.86e-06 PS=1.54e-05 NRD=0.152493 NRS=0.258065 m=1 nf=2 $X=795 $Y=20945 $D=8
M13 4 men vdd vdd pfet_05v0 L=6e-07 W=1.135e-05 AD=3.3596e-12 AS=3.3596e-12 PD=1.658e-05 PS=1.658e-05 NRD=0.651982 NRS=0.651982 m=1 nf=5 $X=855 $Y=590 $D=8
M14 19 2 vdd vdd pfet_05v0 L=6e-07 W=6.81e-06 AD=1.7706e-12 AS=2.1792e-12 PD=8.37e-06 PS=1.1e-05 NRD=0.343612 NRS=0.422907 m=1 nf=3 $X=5370 $Y=20990 $D=8
M15 vdd 4 19 vdd pfet_05v0 L=6e-07 W=2.27e-06 AD=9.988e-13 AS=5.902e-13 PD=5.42e-06 PS=2.79e-06 NRD=0.193833 NRS=0.114537 m=1 nf=1 $X=8730 $Y=20990 $D=8
M16 pcb 10 vdd vdd pfet_05v0 L=6e-07 W=4.09e-05 AD=1.0634e-11 AS=1.21023e-11 PD=4.61e-05 PS=4.6818e-05 NRD=0.635697 NRS=0.723472 m=1 nf=10 $X=830 $Y=14055 $D=8
M17 7 19 vdd vdd pfet_05v0 L=6e-07 W=4.54e-06 AD=1.1804e-12 AS=1.9976e-12 PD=5.06e-06 PS=9.96e-06 NRD=0.0572687 NRS=0.0969163 m=1 nf=1 $X=14270 $Y=13710 $D=8
M18 vdd 11 7 vdd pfet_05v0 L=6e-07 W=4.54e-06 AD=0 AS=0 PD=0 PS=0 NRD=0 NRS=0 m=1 nf=1 $X=15390 $Y=13710 $D=8
M19 7 4 vdd vdd pfet_05v0 L=6e-07 W=4.54e-06 AD=1.9976e-12 AS=1.1804e-12 PD=9.96e-06 PS=5.06e-06 NRD=0.0969163 NRS=0.0572687 m=1 nf=1 $X=16510 $Y=13710 $D=8
M20 vdd 25 26 vdd pfet_05v0 L=6e-07 W=1.2e-06 AD=5.28e-13 AS=5.28e-13 PD=3.28e-06 PS=3.28e-06 NRD=0.366667 NRS=0.366667 m=1 nf=1 $X=18950 $Y=1670 $D=8
M21 10 7 vdd vdd pfet_05v0 L=6e-07 W=1.362e-05 AD=4.3584e-12 AS=4.3584e-12 PD=2.008e-05 PS=2.008e-05 NRD=0.211454 NRS=0.211454 m=1 nf=3 $X=18750 $Y=13710 $D=8
M22 se 19 vdd vdd pfet_05v0 L=6e-07 W=2.72e-05 AD=7.072e-12 AS=8.0512e-12 PD=3.24e-05 PS=3.856e-05 NRD=0.955882 NRS=1.08824 m=1 nf=10 $X=12740 $Y=20450 $D=8
X23 vdd 11 20 pfet_05v0_I18 $T=21255 985 0 0 $X=20215 $Y=365
X27 vss 18 2 vss nfet_05v0_I06 $T=5370 25030 0 0 $X=4690 $Y=24410
X28 19 18 4 vss nfet_05v0_I06 $T=12415 25030 0 0 $X=11735 $Y=24410
X29 20 vdd 21 4 vss pfet_05v0_I16 $T=8080 1480 0 0 $X=7040 $Y=860
X30 22 vdd 23 21 22 pfet_05v0_I16 $T=11705 1480 0 0 $X=10665 $Y=860
X31 24 vdd 25 23 24 pfet_05v0_I16 $T=15325 1480 0 0 $X=14285 $Y=860
X32 20 vss 21 4 vss nfet_05v0_I03 $T=8080 4420 0 0 $X=7400 $Y=3800
X33 22 vss 23 21 22 nfet_05v0_I03 $T=11705 4420 0 0 $X=11025 $Y=3800
X34 24 vss 25 23 24 nfet_05v0_I03 $T=15325 4420 0 0 $X=14645 $Y=3800
X39 26 vss 25 vss nfet_05v0_I05 $T=18950 4420 0 0 $X=18270 $Y=3800
.ENDS
***************************************
.SUBCKT nfet_05v0_I09
** N=3 EP=0 IP=0 FDC=0
*.SEEDPROM
.ENDS
***************************************
.SUBCKT pfet_05v0_I14
** N=3 EP=0 IP=0 FDC=0
*.SEEDPROM
.ENDS
***************************************
.SUBCKT pfet_05v0_I04
** N=4 EP=0 IP=0 FDC=0
*.SEEDPROM
.ENDS
***************************************
.SUBCKT nfet_05v0_I01
** N=4 EP=0 IP=0 FDC=0
*.SEEDPROM
.ENDS
***************************************
.SUBCKT outbuf_oe q vss 3 4 5 15 16 17 18 vdd GWE se qp qn 24
** N=66 EP=15 IP=48 FDC=18
M0 vss 5 q vss nfet_05v0 L=6e-07 W=1.272e-05 AD=3.3072e-12 AS=4.0704e-12 PD=1.584e-05 PS=2.08e-05 NRD=0.735849 NRS=0.90566 m=1 nf=6 $X=395 $Y=2665 $D=2
M1 3 GWE vss vss nfet_05v0 L=6e-07 W=1.6e-06 AD=7.04e-13 AS=7.04e-13 PD=4.08e-06 PS=4.08e-06 NRD=0.275 NRS=0.275 m=1 nf=1 $X=8145 $Y=2720 $D=2
M2 17 3 vss vss nfet_05v0 L=6e-07 W=2.2e-06 AD=9.68e-13 AS=9.68e-13 PD=5.28e-06 PS=5.28e-06 NRD=0.2 NRS=0.2 m=1 nf=1 $X=10105 $Y=2700 $D=2
M3 vss 16 4 vss nfet_05v0 L=6e-07 W=9.6e-07 AD=4.224e-13 AS=4.224e-13 PD=2.8e-06 PS=2.8e-06 NRD=0.458333 NRS=0.458333 m=1 nf=1 $X=13175 $Y=12845 $D=2
M4 5 15 4 vss nfet_05v0 L=6e-07 W=6.81e-06 AD=2.1792e-12 AS=2.1792e-12 PD=1.1e-05 PS=1.1e-05 NRD=0.422907 NRS=0.422907 m=1 nf=3 $X=12455 $Y=2720 $D=2
M5 vss se 15 vss nfet_05v0 L=6e-07 W=9.6e-07 AD=4.224e-13 AS=4.224e-13 PD=2.8e-06 PS=2.8e-06 NRD=0.458333 NRS=0.458333 m=1 nf=1 $X=17045 $Y=4035 $D=2
M6 5 qn 18 vss nfet_05v0 L=6e-07 W=5.68e-06 AD=1.4768e-12 AS=1.988e-12 PD=6.72e-06 PS=9.92e-06 NRD=0.183099 NRS=0.246479 m=1 nf=2 $X=19905 $Y=1945 $D=2
M7 vss 3 18 vss nfet_05v0 L=6e-07 W=5.68e-06 AD=1.4768e-12 AS=1.988e-12 PD=6.72e-06 PS=9.92e-06 NRD=0.183099 NRS=0.246479 m=1 nf=2 $X=22145 $Y=1945 $D=2
M8 vdd 5 q vdd pfet_05v0 L=6e-07 W=2.268e-05 AD=5.8968e-12 AS=7.2576e-12 PD=2.58e-05 PS=3.408e-05 NRD=0.412698 NRS=0.507937 m=1 nf=6 $X=395 $Y=6190 $D=8
M9 3 GWE vdd vdd pfet_05v0 L=6e-07 W=4e-06 AD=1.76e-12 AS=1.76e-12 PD=8.88e-06 PS=8.88e-06 NRD=0.11 NRS=0.11 m=1 nf=1 $X=8145 $Y=6395 $D=8
M10 17 3 vdd vdd pfet_05v0 L=6e-07 W=4.5e-06 AD=1.98e-12 AS=1.98e-12 PD=9.88e-06 PS=9.88e-06 NRD=0.0977778 NRS=0.0977778 m=1 nf=1 $X=10105 $Y=6175 $D=8
M11 4 16 vdd vdd pfet_05v0 L=6e-07 W=2.28e-06 AD=5.928e-13 AS=1.24202e-12 PD=3.32e-06 PS=5.60564e-06 NRD=0.45614 NRS=0.955691 m=1 nf=2 $X=12055 $Y=10310 $D=8
M12 5 se 4 vdd pfet_05v0 L=6e-07 W=6.81e-06 AD=2.1792e-12 AS=2.1792e-12 PD=1.1e-05 PS=1.1e-05 NRD=0.422907 NRS=0.422907 m=1 nf=3 $X=12455 $Y=6395 $D=8
M13 16 5 vdd vdd pfet_05v0 L=6e-07 W=1.2e-06 AD=5.28e-13 AS=7.79385e-13 PD=3.28e-06 PS=2.57436e-06 NRD=0.366667 NRS=0.541239 m=1 nf=1 $X=15085 $Y=10250 $D=8
M14 vdd se 15 vdd pfet_05v0 L=6e-07 W=2.27e-06 AD=9.988e-13 AS=9.988e-13 PD=5.42e-06 PS=5.42e-06 NRD=0.193833 NRS=0.193833 m=1 nf=1 $X=17045 $Y=7030 $D=8
M15 5 qp 24 vdd pfet_05v0 L=6e-07 W=1.134e-05 AD=2.9484e-12 AS=3.969e-12 PD=1.238e-05 PS=1.841e-05 NRD=0.0917108 NRS=0.123457 m=1 nf=2 $X=19680 $Y=6685 $D=8
M16 vdd 17 24 vdd pfet_05v0 L=6e-07 W=1.134e-05 AD=2.9484e-12 AS=3.969e-12 PD=1.238e-05 PS=1.841e-05 NRD=0.0917108 NRS=0.123457 m=1 nf=2 $X=21920 $Y=6685 $D=8
X22 vss 16 5 vss nfet_05v0_I05 $T=15150 13365 1 0 $X=14470 $Y=12145
.ENDS
***************************************
.SUBCKT pmos_1p2$$46887980 1 2 3
** N=3 EP=3 IP=0 FDC=1
M0 2 3 1 1 pfet_05v0 L=6e-07 W=1.361e-05 AD=5.9884e-12 AS=5.9884e-12 PD=2.81e-05 PS=2.81e-05 NRD=0.0323292 NRS=0.0323292 m=1 nf=1 $X=-155 $Y=0 $D=8
.ENDS
***************************************
.SUBCKT pmos_1p2$$46273580 1 2 3
** N=3 EP=3 IP=3 FDC=1
M0 2 3 1 1 pfet_05v0 L=6e-07 W=2.28e-06 AD=5.928e-13 AS=1.0032e-12 PD=3.32e-06 PS=6.32e-06 NRD=0.45614 NRS=0.77193 m=1 nf=2 $X=-155 $Y=0 $D=8
.ENDS
***************************************
.SUBCKT nmos_1p2$$46883884 1 2 3 4
** N=4 EP=4 IP=0 FDC=1
M0 2 3 1 4 nfet_05v0 L=6e-07 W=1.134e-05 AD=4.9896e-12 AS=4.9896e-12 PD=2.356e-05 PS=2.356e-05 NRD=0.0388007 NRS=0.0388007 m=1 nf=1 $X=-155 $Y=0 $D=2
.ENDS
***************************************
.SUBCKT pfet_05v0_I03 1 2 3 4 5 6
** N=6 EP=6 IP=0 FDC=2
M0 2 4 1 6 pfet_05v0 L=6e-07 W=9.6e-07 AD=2.496e-13 AS=4.224e-13 PD=1.48e-06 PS=2.8e-06 NRD=0.270833 NRS=0.458333 m=1 nf=1 $X=0 $Y=0 $D=8
M1 3 5 2 6 pfet_05v0 L=6e-07 W=9.6e-07 AD=4.224e-13 AS=2.496e-13 PD=2.8e-06 PS=1.48e-06 NRD=0.458333 NRS=0.270833 m=1 nf=1 $X=1120 $Y=0 $D=8
.ENDS
***************************************
.SUBCKT nfet_05v0_I02 1 2 3 4 5 6
** N=6 EP=6 IP=0 FDC=2
M0 2 4 1 6 nfet_05v0 L=6e-07 W=9.6e-07 AD=2.496e-13 AS=4.224e-13 PD=1.48e-06 PS=2.8e-06 NRD=0.270833 NRS=0.458333 m=1 nf=1 $X=0 $Y=0 $D=2
M1 3 5 2 6 nfet_05v0 L=6e-07 W=9.6e-07 AD=4.224e-13 AS=2.496e-13 PD=2.8e-06 PS=1.48e-06 NRD=0.458333 NRS=0.270833 m=1 nf=1 $X=1120 $Y=0 $D=2
.ENDS
***************************************
.SUBCKT nmos_1p2$$46563372 1 2 3 4
** N=4 EP=4 IP=4 FDC=1
M0 2 3 1 4 nfet_05v0 L=6e-07 W=9.6e-07 AD=4.224e-13 AS=4.224e-13 PD=2.8e-06 PS=2.8e-06 NRD=0.458333 NRS=0.458333 m=1 nf=1 $X=-155 $Y=0 $D=2
.ENDS
***************************************
.SUBCKT M1_NWELL_I01
** N=4 EP=0 IP=0 FDC=0
.ENDS
***************************************
.SUBCKT din vss 2 3 4 d db 7 8 9 10 11 12 vdd datain men wep
** N=69 EP=16 IP=73 FDC=24
M0 2 4 vss vss nfet_05v0 L=6e-07 W=1.361e-05 AD=5.9884e-12 AS=5.9884e-12 PD=2.81e-05 PS=2.81e-05 NRD=0.0323292 NRS=0.0323292 m=1 nf=1 $X=260 $Y=10430 $D=2
M1 3 wep vss vss nfet_05v0 L=6e-07 W=1.14e-06 AD=7.866e-13 AS=7.923e-13 PD=3.66e-06 PS=3.67e-06 NRD=0.605263 NRS=0.609649 m=1 nf=1 $X=3600 $Y=38320 $D=2
M2 vss 10 4 vss nfet_05v0 L=6e-07 W=2.27e-06 AD=9.988e-13 AS=9.988e-13 PD=5.42e-06 PS=5.42e-06 NRD=0.193833 NRS=0.193833 m=1 nf=1 $X=11165 $Y=8655 $D=2
M3 3 wep vdd vdd pfet_05v0 L=6e-07 W=2.97e-06 AD=1.13602e-12 AS=1.7523e-12 PD=4.5e-06 PS=8.3e-06 NRD=0.515152 NRS=0.794613 m=1 nf=2 $X=3025 $Y=35440 $D=8
M4 vdd 2 7 vdd pfet_05v0 L=6e-07 W=1.134e-05 AD=4.9896e-12 AS=4.9896e-12 PD=2.356e-05 PS=2.356e-05 NRD=0.0388007 NRS=0.0388007 m=1 nf=1 $X=6980 $Y=26220 $D=8
X5 4 vdd 10 vdd pfet_05v0_I09 $T=11165 455 0 0 $X=10125 $Y=-165
X6 d 2 3 vdd pmos_1p2$$46889004 $T=2655 26220 0 0 $X=1225 $Y=25510
X7 db 7 3 vdd pmos_1p2$$46889004 $T=4895 26220 0 0 $X=3465 $Y=25510
X9 vdd 2 4 pmos_1p2$$46887980 $T=415 26220 0 0 $X=-1015 $Y=25510
X10 vdd 12 men pmos_1p2$$46273580 $T=2920 7175 1 0 $X=1490 $Y=5355
X11 vdd 11 4 pmos_1p2$$46273580 $T=7060 8140 1 0 $X=5630 $Y=6320
X12 d 2 wep vss nmos_1p2$$46883884 $T=2655 12695 0 0 $X=1510 $Y=12010
X13 db 7 wep vss nmos_1p2$$46883884 $T=4895 12695 0 0 $X=3750 $Y=12010
X14 7 vss 2 vss nmos_1p2$$46883884 $T=7135 12695 0 0 $X=5990 $Y=12010
X15 8 vdd 9 datain 8 vdd pfet_05v0_I03 $T=2765 3195 0 0 $X=1725 $Y=2575
X16 9 10 11 men 12 vdd pfet_05v0_I03 $T=6905 3605 0 0 $X=5865 $Y=2985
X17 8 vss 9 datain 8 vss nfet_05v0_I02 $T=2765 1790 1 0 $X=2085 $Y=210
X18 9 10 11 12 men vss nfet_05v0_I02 $T=6905 725 0 0 $X=6225 $Y=105
X19 vss 12 men vss nmos_1p2$$46563372 $T=3470 9035 0 0 $X=2325 $Y=8350
X20 vss 11 4 vss nmos_1p2$$46563372 $T=7060 10495 1 0 $X=5915 $Y=8860
.ENDS
***************************************
.SUBCKT nmos_1p2$$46553132
** N=3 EP=0 IP=0 FDC=0
*.SEEDPROM
.ENDS
***************************************
.SUBCKT pmos_1p2$$46897196 1 2 3 4
** N=4 EP=4 IP=4 FDC=1
M0 2 3 1 4 pfet_05v0 L=6e-07 W=4.54e-06 AD=1.1804e-12 AS=1.9976e-12 PD=5.58e-06 PS=1.084e-05 NRD=0.229075 NRS=0.387665 m=1 nf=2 $X=-155 $Y=0 $D=8
.ENDS
***************************************
.SUBCKT pmos_1p2$$46898220
** N=3 EP=0 IP=0 FDC=0
*.SEEDPROM
.ENDS
***************************************
.SUBCKT nmos_1p2$$46551084
** N=4 EP=0 IP=4 FDC=0
*.SEEDPROM
.ENDS
***************************************
.SUBCKT sa 1 vss 3 4 qn qp 7 pcb vdd d db se
** N=105 EP=12 IP=47 FDC=27
M0 1 vss vss vss nfet_05v0 L=6e-07 W=3.41e-06 AD=8.866e-13 AS=1.5004e-12 PD=3.93e-06 PS=7.7e-06 NRD=0.0762463 NRS=0.129032 m=1 nf=1 $X=11660 $Y=16585 $D=2
M1 3 4 1 vss nfet_05v0 L=6e-07 W=3.41e-06 AD=0 AS=0 PD=0 PS=0 NRD=0 NRS=0 m=1 nf=1 $X=12780 $Y=16585 $D=2
M2 4 1 3 vss nfet_05v0 L=6e-07 W=6.82e-06 AD=1.7732e-12 AS=1.7732e-12 PD=7.86e-06 PS=7.86e-06 NRD=0.152493 NRS=0.152493 m=1 nf=2 $X=13900 $Y=16585 $D=2
M3 7 4 vss vss nfet_05v0 L=6e-07 W=2.27e-06 AD=9.988e-13 AS=9.988e-13 PD=5.42e-06 PS=5.42e-06 NRD=0.193833 NRS=0.193833 m=1 nf=1 $X=15170 $Y=8510 $D=2
M4 1 4 3 vss nfet_05v0 L=6e-07 W=6.82e-06 AD=1.7732e-12 AS=1.7732e-12 PD=7.86e-06 PS=7.86e-06 NRD=0.152493 NRS=0.152493 m=1 nf=2 $X=16140 $Y=16585 $D=2
M5 4 1 3 vss nfet_05v0 L=6e-07 W=6.82e-06 AD=1.7732e-12 AS=1.7732e-12 PD=7.86e-06 PS=7.86e-06 NRD=0.152493 NRS=0.152493 m=1 nf=2 $X=18380 $Y=16585 $D=2
M6 vss 7 qp vss nfet_05v0 L=6e-07 W=6.81e-06 AD=1.7706e-12 AS=2.1792e-12 PD=8.37e-06 PS=1.1e-05 NRD=0.343612 NRS=0.422907 m=1 nf=3 $X=17410 $Y=8510 $D=2
M7 1 4 3 vss nfet_05v0 L=6e-07 W=3.41e-06 AD=0 AS=0 PD=0 PS=0 NRD=0 NRS=0 m=1 nf=1 $X=20620 $Y=16585 $D=2
M8 qn 1 vss vss nfet_05v0 L=6e-07 W=2.27e-06 AD=9.988e-13 AS=5.902e-13 PD=5.42e-06 PS=2.79e-06 NRD=0.193833 NRS=0.114537 m=1 nf=1 $X=20770 $Y=8510 $D=2
M9 3 se vss vss nfet_05v0 L=6e-07 W=2.272e-05 AD=5.9072e-12 AS=6.9296e-12 PD=2.688e-05 PS=3.328e-05 NRD=0.732394 NRS=0.859155 m=1 nf=8 $X=12945 $Y=12550 $D=2
M10 vss vss 1 vss nfet_05v0 L=6e-07 W=3.41e-06 AD=1.5004e-12 AS=8.866e-13 PD=7.7e-06 PS=3.93e-06 NRD=0.129032 NRS=0.0762463 m=1 nf=1 $X=21740 $Y=16585 $D=2
M11 4 vdd vdd vdd pfet_05v0 L=6e-07 W=9.1e-07 AD=2.366e-13 AS=4.004e-13 PD=1.43e-06 PS=2.7e-06 NRD=0.285714 NRS=0.483516 m=1 nf=1 $X=13985 $Y=24010 $D=8
M12 vdd 1 4 vdd pfet_05v0 L=6e-07 W=9.1e-07 AD=0 AS=0 PD=0 PS=0 NRD=0 NRS=0 m=1 nf=1 $X=15105 $Y=24010 $D=8
M13 d pcb vdd vdd pfet_05v0 L=6e-07 W=2.27e-06 AD=5.902e-13 AS=9.988e-13 PD=2.79e-06 PS=5.42e-06 NRD=0.114537 NRS=0.193833 m=1 nf=1 $X=15755 $Y=30660 $D=8
M14 7 4 vdd vdd pfet_05v0 L=6e-07 W=4.54e-06 AD=1.1804e-12 AS=1.589e-12 PD=5.58e-06 PS=8.21e-06 NRD=0.229075 NRS=0.30837 m=1 nf=2 $X=15170 $Y=4385 $D=8
M15 4 pcb 1 vdd pfet_05v0 L=6e-07 W=2.27e-06 AD=9.988e-13 AS=9.988e-13 PD=5.42e-06 PS=5.42e-06 NRD=0.193833 NRS=0.193833 m=1 nf=1 $X=16875 $Y=26330 $D=8
M16 db pcb d vdd pfet_05v0 L=6e-07 W=2.27e-06 AD=0 AS=0 PD=0 PS=0 NRD=0 NRS=0 m=1 nf=1 $X=16875 $Y=30660 $D=8
M17 1 4 vdd vdd pfet_05v0 L=6e-07 W=1.82e-06 AD=4.732e-13 AS=4.732e-13 PD=2.86e-06 PS=2.86e-06 NRD=0.571429 NRS=0.571429 m=1 nf=2 $X=16225 $Y=24010 $D=8
M18 vdd pcb db vdd pfet_05v0 L=6e-07 W=2.27e-06 AD=9.988e-13 AS=5.902e-13 PD=5.42e-06 PS=2.79e-06 NRD=0.193833 NRS=0.114537 m=1 nf=1 $X=17995 $Y=30660 $D=8
M19 4 1 vdd vdd pfet_05v0 L=6e-07 W=9.1e-07 AD=0 AS=0 PD=0 PS=0 NRD=0 NRS=0 m=1 nf=1 $X=18465 $Y=24010 $D=8
M20 qp 7 vdd vdd pfet_05v0 L=6e-07 W=4.54e-06 AD=1.1804e-12 AS=1.1804e-12 PD=5.58e-06 PS=5.58e-06 NRD=0.229075 NRS=0.229075 m=1 nf=2 $X=17410 $Y=4385 $D=8
M21 vdd vdd 4 vdd pfet_05v0 L=6e-07 W=9.1e-07 AD=4.004e-13 AS=2.366e-13 PD=2.7e-06 PS=1.43e-06 NRD=0.483516 NRS=0.285714 m=1 nf=1 $X=19585 $Y=24010 $D=8
M22 qn 1 vdd vdd pfet_05v0 L=6e-07 W=4.54e-06 AD=1.1804e-12 AS=1.589e-12 PD=5.58e-06 PS=8.21e-06 NRD=0.229075 NRS=0.30837 m=1 nf=2 $X=19650 $Y=4385 $D=8
X28 db 1 se vdd pmos_1p2$$46897196 $T=12475 26330 0 0 $X=11045 $Y=25620
X29 d 4 se vdd pmos_1p2$$46897196 $T=12475 30660 0 0 $X=11045 $Y=29950
X30 d 4 se vdd pmos_1p2$$46897196 $T=20400 26330 0 0 $X=18970 $Y=25620
X31 db 1 se vdd pmos_1p2$$46897196 $T=20400 30660 0 0 $X=18970 $Y=29950
.ENDS
***************************************
.SUBCKT saout_m2 1 VSS q datain pcb men VDD b[0] bb[0] WEN b[7] bb[7] bb[6] b[6] b[5] bb[5] bb[4] b[4] b[3] bb[3]
+ bb[2] b[2] b[1] bb[1] 54 GWE ypass[7] ypass[6] ypass[5] ypass[4] ypass[3] ypass[2] ypass[1] ypass[0] GWEN 78 79 80 81 82
+ 83 84
** N=135 EP=42 IP=161 FDC=187
*.SEEDPROM
X0 VSS 54 b[0] 74 bb[0] 77 pcb VDD ypass[0] 78 bb[7] b[7] 79 bb[6] b[6] 80 bb[5] b[5] 81 bb[4]
+ b[4] 82 bb[3] b[3] 83 bb[2] b[2] 84 bb[1] b[1] ypass[7] ypass[6] ypass[5] ypass[4] ypass[3] ypass[2] ypass[1]
+ mux821 $T=2765 83345 0 0 $X=-1345 $Y=83340
X1 VSS 1 86 89 90 87 92 96 91 97 93 94 95 men VDD WEN GWEN 85 88 wen_wm1 $T=1610 -16845 0 0 $X=100 $Y=-17385
X2 VSS 98 pcb 72 103 104 105 106 108 111 112 100 99 101 75 102 73 107 109 110
+ 76 VDD men
+ sacntl_2 $T=3160 150 0 0 $X=425 $Y=30
X3 q VSS 113 115 116 118 117 114 120 VDD GWE 76 134 135 119 outbuf_oe $T=3160 27580 0 0 $X=500 $Y=25785
X4 VSS 121 124 129 74 77 126 122 125 127 128 123 VDD datain men 1 din $T=1615 39060 0 0 $X=500 $Y=38775
X5 130 VSS 132 131 135 134 133 pcb VDD 74 77 76 sa $T=3160 43075 0 0 $X=1375 $Y=42095
.ENDS
***************************************
.SUBCKT 018SRAM_cell1_dummy 1 2 3 4 5 7
** N=9 EP=6 IP=0 FDC=4
*.SEEDPROM
M0 1 7 2 3 nfet_05v0 L=7.7e-07 W=6e-07 AD=2.81613e-13 AS=2.82e-13 PD=1.84258e-06 PS=2.14e-06 NRD=0.782258 NRS=0.783333 m=1 nf=1 $X=180 $Y=260 $D=2
M1 3 5 1 3 nfet_05v0 L=6e-07 W=9.5e-07 AD=1.84565e-14 AS=1.18957e-13 PD=-7.88406e-08 PS=9.41159e-07 NRD=0.0204504 NRS=0.131808 m=1 nf=1 $X=630 $Y=1710 $D=2
M2 5 1 3 3 nfet_05v0 L=6e-07 W=9.5e-07 AD=1.18957e-13 AS=1.84565e-14 PD=9.41159e-07 PS=-7.88406e-08 NRD=0.131808 NRS=0.0204504 m=1 nf=1 $X=1770 $Y=1710 $D=2
M3 5 7 4 3 nfet_05v0 L=7.7e-07 W=6e-07 AD=2.81613e-13 AS=2.82e-13 PD=1.84258e-06 PS=2.14e-06 NRD=0.782258 NRS=0.783333 m=1 nf=1 $X=2220 $Y=260 $D=2
.ENDS
***************************************
.SUBCKT ICV_6 1 3 4 5 6 7 8 9 10 11
** N=15 EP=10 IP=18 FDC=8
*.SEEDPROM
X0 5 4 1 6 7 3 018SRAM_cell1_dummy $T=-3000 0 0 0 $X=-3340 $Y=-340