**************************************
* Revision: 0.3
**************************************

*.SCALE METER
.SUBCKT ADDF_X1_7T5P0 A B CI CO S VDD VNW VPW VSS 
M_M51 VSS net9 S VPW nfet_05v0 W=7.1e-07 L=6e-07
M_M46 net9 CI net47 VPW nfet_05v0 W=3.8e-07 L=6e-07
M_M45 net42 CI VSS VPW nfet_05v0 W=3.8e-07 L=6e-07
M_M34 CO net7 VSS VPW nfet_05v0 W=8.15e-07 L=6e-07
M_M33 VDD net9 S VNW pfet_05v0 W=1.215e-06 L=5e-07
M_M28 net9 CI net29 VNW pfet_05v0 W=6.6e-07 L=5e-07
M_M24 net9 net7 net3 VNW pfet_05v0 W=6.6e-07 L=5e-07
M_M25 net3 A VDD VNW pfet_05v0 W=6.6e-07 L=5e-07
M_M26 VDD B net3 VNW pfet_05v0 W=6.6e-07 L=5e-07
M_M27 net3 CI VDD VNW pfet_05v0 W=6.6e-07 L=5e-07
M_M21 net7 CI net1 VNW pfet_05v0 W=7e-07 L=5e-07
M_M20 net19 B net7 VNW pfet_05v0 W=7e-07 L=5e-07
M_M18 VDD A net19 VNW pfet_05v0 W=7e-07 L=5e-07
M_M17 CO net7 VDD VNW pfet_05v0 W=1.215e-06 L=5e-07
M_M48 net47 B net49 VPW nfet_05v0 W=3.8e-07 L=6e-07
M_M41 net9 net7 net42 VPW nfet_05v0 W=3.8e-07 L=6e-07
M_M43 net42 A VSS VPW nfet_05v0 W=3.8e-07 L=6e-07
M_M44 VSS B net42 VPW nfet_05v0 W=3.8e-07 L=6e-07
M_M38 net7 CI net5 VPW nfet_05v0 W=3.8e-07 L=6e-07
M_M37 net36 B net7 VPW nfet_05v0 W=3.8e-07 L=6e-07
M_M35 VSS A net36 VPW nfet_05v0 W=3.8e-07 L=6e-07
M_M30 net29 B net31 VNW pfet_05v0 W=6.6e-07 L=5e-07
M_M23 VDD B net1 VNW pfet_05v0 W=7e-07 L=5e-07
M_M22 net1 A VDD VNW pfet_05v0 W=7e-07 L=5e-07
M_M50 net49 A VSS VPW nfet_05v0 W=3.8e-07 L=6e-07
M_M40 VSS B net5 VPW nfet_05v0 W=3.8e-07 L=6e-07
M_M39 net5 A VSS VPW nfet_05v0 W=3.8e-07 L=6e-07
M_M32 net31 A VDD VNW pfet_05v0 W=6.6e-07 L=5e-07
.ENDS

.SUBCKT ADDF_X2_7T5P0 A B CI CO S VDD VNW VPW VSS 
M_M51_17 VSS net9 S VPW nfet_05v0 W=8.15e-07 L=6e-07
M_M51 VSS net9 S VPW nfet_05v0 W=8.15e-07 L=6e-07
M_M46 net9 CI net47 VPW nfet_05v0 W=3.8e-07 L=6e-07
M_M45 net42 CI VSS VPW nfet_05v0 W=3.8e-07 L=6e-07
M_M34 CO net7 VSS VPW nfet_05v0 W=8.15e-07 L=6e-07
M_M34_25 CO net7 VSS VPW nfet_05v0 W=8.15e-07 L=6e-07
M_M33_12 VDD net9 S VNW pfet_05v0 W=1.12e-06 L=5e-07
M_M33 VDD net9 S VNW pfet_05v0 W=1.12e-06 L=5e-07
M_M28 net9 CI net29 VNW pfet_05v0 W=6.8e-07 L=5e-07
M_M24 net9 net7 net3 VNW pfet_05v0 W=6.8e-07 L=5e-07
M_M25 net3 A VDD VNW pfet_05v0 W=6.8e-07 L=5e-07
M_M26 VDD B net3 VNW pfet_05v0 W=6.8e-07 L=5e-07
M_M27 net3 CI VDD VNW pfet_05v0 W=6.8e-07 L=5e-07
M_M21 net7 CI net1 VNW pfet_05v0 W=7.8e-07 L=5e-07
M_M20 net19 B net7 VNW pfet_05v0 W=7.8e-07 L=5e-07
M_M18 VDD A net19 VNW pfet_05v0 W=7.8e-07 L=5e-07
M_M17 CO net7 VDD VNW pfet_05v0 W=1.195e-06 L=5e-07
M_M17_23 CO net7 VDD VNW pfet_05v0 W=1.195e-06 L=5e-07
M_M48 net47 B net49 VPW nfet_05v0 W=3.8e-07 L=6e-07
M_M41 net9 net7 net42 VPW nfet_05v0 W=3.8e-07 L=6e-07
M_M43 net42 A VSS VPW nfet_05v0 W=3.8e-07 L=6e-07
M_M44 VSS B net42 VPW nfet_05v0 W=3.8e-07 L=6e-07
M_M38 net7 CI net5 VPW nfet_05v0 W=3.8e-07 L=6e-07
M_M37 net36 B net7 VPW nfet_05v0 W=3.8e-07 L=6e-07
M_M35 VSS A net36 VPW nfet_05v0 W=3.8e-07 L=6e-07
M_M30 net29 B net31 VNW pfet_05v0 W=6.8e-07 L=5e-07
M_M23 VDD B net1 VNW pfet_05v0 W=7.8e-07 L=5e-07
M_M22 net1 A VDD VNW pfet_05v0 W=7.8e-07 L=5e-07
M_M50 net49 A VSS VPW nfet_05v0 W=3.8e-07 L=6e-07
M_M40 VSS B net5 VPW nfet_05v0 W=3.8e-07 L=6e-07
M_M39 net5 A VSS VPW nfet_05v0 W=3.8e-07 L=6e-07
M_M32 net31 A VDD VNW pfet_05v0 W=6.8e-07 L=5e-07
.ENDS

.SUBCKT ADDF_X4_7T5P0 A B CI CO S VDD VNW VPW VSS 
M_M51_17_0 VSS net9 S VPW nfet_05v0 W=8.15e-07 L=6e-07
M_M51_18 VSS net9 S VPW nfet_05v0 W=8.15e-07 L=6e-07
M_M51_17 VSS net9 S VPW nfet_05v0 W=8.15e-07 L=6e-07
M_M51 VSS net9 S VPW nfet_05v0 W=8.15e-07 L=6e-07
M_M46 net9 CI net47 VPW nfet_05v0 W=3.8e-07 L=6e-07
M_M45 net42 CI VSS VPW nfet_05v0 W=3.8e-07 L=6e-07
M_M34 CO net7 VSS VPW nfet_05v0 W=8.15e-07 L=6e-07
M_M34_25 CO net7 VSS VPW nfet_05v0 W=8.15e-07 L=6e-07
M_M34_53 CO net7 VSS VPW nfet_05v0 W=8.15e-07 L=6e-07
M_M34_25_56 CO net7 VSS VPW nfet_05v0 W=8.15e-07 L=6e-07
M_M33_12_23 VDD net9 S VNW pfet_05v0 W=1.095e-06 L=5e-07
M_M33_34 VDD net9 S VNW pfet_05v0 W=1.095e-06 L=5e-07
M_M33_12 VDD net9 S VNW pfet_05v0 W=1.095e-06 L=5e-07
M_M33 VDD net9 S VNW pfet_05v0 W=1.095e-06 L=5e-07
M_M28 net9 CI net29 VNW pfet_05v0 W=6.6e-07 L=5e-07
M_M24 net9 net7 net3 VNW pfet_05v0 W=6.6e-07 L=5e-07
M_M25 net3 A VDD VNW pfet_05v0 W=6.6e-07 L=5e-07
M_M26 VDD B net3 VNW pfet_05v0 W=6.6e-07 L=5e-07
M_M27 net3 CI VDD VNW pfet_05v0 W=6.6e-07 L=5e-07
M_M21 net7 CI net1 VNW pfet_05v0 W=7.8e-07 L=5e-07
M_M20 net19 B net7 VNW pfet_05v0 W=7.8e-07 L=5e-07
M_M18 VDD A net19 VNW pfet_05v0 W=7.8e-07 L=5e-07
M_M17 CO net7 VDD VNW pfet_05v0 W=1.215e-06 L=5e-07
M_M17_23 CO net7 VDD VNW pfet_05v0 W=1.215e-06 L=5e-07
M_M17_66 CO net7 VDD VNW pfet_05v0 W=1.215e-06 L=5e-07
M_M17_23_46 CO net7 VDD VNW pfet_05v0 W=1.215e-06 L=5e-07
M_M48 net47 B net49 VPW nfet_05v0 W=3.8e-07 L=6e-07
M_M41 net9 net7 net42 VPW nfet_05v0 W=3.8e-07 L=6e-07
M_M43 net42 A VSS VPW nfet_05v0 W=3.8e-07 L=6e-07
M_M44 VSS B net42 VPW nfet_05v0 W=3.8e-07 L=6e-07
M_M38 net7 CI net5 VPW nfet_05v0 W=3.8e-07 L=6e-07
M_M37 net36 B net7 VPW nfet_05v0 W=3.8e-07 L=6e-07
M_M35 VSS A net36 VPW nfet_05v0 W=3.8e-07 L=6e-07
M_M30 net29 B net31 VNW pfet_05v0 W=6.6e-07 L=5e-07
M_M23 VDD B net1 VNW pfet_05v0 W=7.8e-07 L=5e-07
M_M22 net1 A VDD VNW pfet_05v0 W=7.8e-07 L=5e-07
M_M50 net49 A VSS VPW nfet_05v0 W=3.8e-07 L=6e-07
M_M40 VSS B net5 VPW nfet_05v0 W=3.8e-07 L=6e-07
M_M39 net5 A VSS VPW nfet_05v0 W=3.8e-07 L=6e-07
M_M32 net31 A VDD VNW pfet_05v0 W=6.6e-07 L=5e-07
.ENDS

.SUBCKT ADDH_X1_7T5P0 A B CO S VDD VNW VPW VSS 
M_i_2 VSS NCO CO VPW nfet_05v0 W=8.15e-07 L=6e-07
M_i_5 net_0 A VSS VPW nfet_05v0 W=4.8e-07 L=6e-07
M_i_4 NCO B net_0 VPW nfet_05v0 W=4.8e-07 L=6e-07
M_i_0 S NS VSS VPW nfet_05v0 W=8.15e-07 L=6e-07
M_i_3 VDD NCO CO VNW pfet_05v0 W=1.22e-06 L=5e-07
M_i_7 NCO A VDD VNW pfet_05v0 W=6.35e-07 L=5e-07
M_i_6 VDD B NCO VNW pfet_05v0 W=6.35e-07 L=5e-07
M_i_11 NS A net_2 VNW pfet_05v0 W=6.35e-07 L=5e-07
M_i_13 VDD NCO NS VNW pfet_05v0 W=6.35e-07 L=5e-07
M_i_1 S NS VDD VNW pfet_05v0 W=1.22e-06 L=5e-07
M_i_9 NS B net_1 VPW nfet_05v0 W=4.2e-07 L=6e-07
M_i_8 net_1 A NS VPW nfet_05v0 W=4.2e-07 L=6e-07
M_i_10 VSS NCO net_1 VPW nfet_05v0 W=4.2e-07 L=6e-07
M_i_12 net_2 B VDD VNW pfet_05v0 W=6.35e-07 L=5e-07
.ENDS

.SUBCKT ADDH_X2_7T5P0 A B CO S VDD VNW VPW VSS 
M_i_2_1 CO NCO VSS VPW nfet_05v0 W=8.15e-07 L=6e-07
M_i_2_0 VSS NCO CO VPW nfet_05v0 W=8.15e-07 L=6e-07
M_i_5 net_0 A VSS VPW nfet_05v0 W=8.15e-07 L=6e-07
M_i_4 NCO B net_0 VPW nfet_05v0 W=8.15e-07 L=6e-07
M_i_0_1 S NS VSS VPW nfet_05v0 W=8.15e-07 L=6e-07
M_i_0_0 VSS NS S VPW nfet_05v0 W=8.15e-07 L=6e-07
M_i_3_1 CO NCO VDD VNW pfet_05v0 W=1.215e-06 L=5e-07
M_i_3_0 VDD NCO CO VNW pfet_05v0 W=1.215e-06 L=5e-07
M_i_7 NCO A VDD VNW pfet_05v0 W=1.215e-06 L=5e-07
M_i_6 VDD B NCO VNW pfet_05v0 W=1.215e-06 L=5e-07
M_i_11 NS A net_2 VNW pfet_05v0 W=9.75e-07 L=5e-07
M_i_13 VDD NCO NS VNW pfet_05v0 W=9.75e-07 L=5e-07
M_i_1_1 S NS VDD VNW pfet_05v0 W=9.75e-07 L=5e-07
M_i_1_0 VDD NS S VNW pfet_05v0 W=9.75e-07 L=5e-07
M_i_9 NS B net_1 VPW nfet_05v0 W=8.15e-07 L=6e-07
M_i_8 net_1 A NS VPW nfet_05v0 W=8.15e-07 L=6e-07
M_i_10 VSS NCO net_1 VPW nfet_05v0 W=8.15e-07 L=6e-07
M_i_12 net_2 B VDD VNW pfet_05v0 W=9.75e-07 L=5e-07
.ENDS

.SUBCKT ADDH_X4_7T5P0 A B CO S VDD VNW VPW VSS 
M_i_5_1 net_0_0 A VSS VPW nfet_05v0 W=8.2e-07 L=6e-07
M_i_4_1 NCO B net_0_0 VPW nfet_05v0 W=8.2e-07 L=6e-07
M_i_4_0 net_0_1 B NCO VPW nfet_05v0 W=8.2e-07 L=6e-07
M_i_5_0 VSS A net_0_1 VPW nfet_05v0 W=8.2e-07 L=6e-07
M_i_10_0 net_1 NCO VSS VPW nfet_05v0 W=6.1e-07 L=6e-07
M_i_8_0 NS A net_1 VPW nfet_05v0 W=6.1e-07 L=6e-07
M_i_9_0 net_1 B NS VPW nfet_05v0 W=6.1e-07 L=6e-07
M_i_9_1 NS B net_1 VPW nfet_05v0 W=6.1e-07 L=6e-07
M_i_8_1 net_1 A NS VPW nfet_05v0 W=6.1e-07 L=6e-07
M_i_10_1 VSS NCO net_1 VPW nfet_05v0 W=6.1e-07 L=6e-07
M_i_2_3 CO NCO VSS VPW nfet_05v0 W=1.05e-06 L=6e-07
M_i_2_2 VSS NCO CO VPW nfet_05v0 W=1.05e-06 L=6e-07
M_i_2_1 CO NCO VSS VPW nfet_05v0 W=1.05e-06 L=6e-07
M_i_2_0 VSS NCO CO VPW nfet_05v0 W=1.05e-06 L=6e-07
M_i_0_3 S NS VSS VPW nfet_05v0 W=8.2e-07 L=6e-07
M_i_0_2 VSS NS S VPW nfet_05v0 W=8.2e-07 L=6e-07
M_i_0_1 S NS VSS VPW nfet_05v0 W=8.2e-07 L=6e-07
M_i_0_0 VSS NS S VPW nfet_05v0 W=8.2e-07 L=6e-07
M_i_7_1 NCO A VDD VNW pfet_05v0 W=9.9e-07 L=5e-07
M_i_6_1 VDD B NCO VNW pfet_05v0 W=9.9e-07 L=5e-07
M_i_6_0 NCO B VDD VNW pfet_05v0 W=9.9e-07 L=5e-07
M_i_7_0 VDD A NCO VNW pfet_05v0 W=9.9e-07 L=5e-07
M_i_13_0 NS NCO VDD VNW pfet_05v0 W=9.9e-07 L=5e-07
M_i_11_0 net_2_0 A NS VNW pfet_05v0 W=9.9e-07 L=5e-07
M_i_12_0 VDD B net_2_0 VNW pfet_05v0 W=9.9e-07 L=5e-07
M_i_12_1 net_2_1 B VDD VNW pfet_05v0 W=9.9e-07 L=5e-07
M_i_11_1 NS A net_2_1 VNW pfet_05v0 W=9.9e-07 L=5e-07
M_i_13_1 VDD NCO NS VNW pfet_05v0 W=9.9e-07 L=5e-07
M_i_3_3 CO NCO VDD VNW pfet_05v0 W=9.9e-07 L=5e-07
M_i_3_2 VDD NCO CO VNW pfet_05v0 W=9.9e-07 L=5e-07
M_i_3_1 CO NCO VDD VNW pfet_05v0 W=9.9e-07 L=5e-07
M_i_3_0 VDD NCO CO VNW pfet_05v0 W=9.9e-07 L=5e-07
M_i_1_3 S NS VDD VNW pfet_05v0 W=9.9e-07 L=5e-07
M_i_1_2 VDD NS S VNW pfet_05v0 W=9.9e-07 L=5e-07
M_i_1_1 S NS VDD VNW pfet_05v0 W=9.9e-07 L=5e-07
M_i_1_0 VDD NS S VNW pfet_05v0 W=9.9e-07 L=5e-07
.ENDS 

.SUBCKT AND2_X1_7T5P0 A1 A2 Z VDD VNW VPW VSS 
M_i_2 net_0 A1 Z_neg VPW nfet_05v0 W=3.65e-07 L=6e-07
M_i_3 VSS A2 net_0 VPW nfet_05v0 W=3.65e-07 L=6e-07
M_i_0 Z Z_neg VSS VPW nfet_05v0 W=8.15e-07 L=6e-07
M_i_4 Z_neg A1 VDD VNW pfet_05v0 W=6e-07 L=5e-07
M_i_5 VDD A2 Z_neg VNW pfet_05v0 W=6e-07 L=5e-07
M_i_1 Z Z_neg VDD VNW pfet_05v0 W=1.215e-06 L=5e-07
.ENDS 

.SUBCKT AND2_X2_7T5P0 A1 A2 Z VDD VNW VPW VSS 
M_i_2 net_0 A1 Z_neg VPW nfet_05v0 W=8.15e-07 L=6e-07
M_i_3 VSS A2 net_0 VPW nfet_05v0 W=8.15e-07 L=6e-07
M_i_0_0 Z Z_neg VSS VPW nfet_05v0 W=8.15e-07 L=6e-07
M_i_0_1 VSS Z_neg Z VPW nfet_05v0 W=8.15e-07 L=6e-07
M_i_4 Z_neg A1 VDD VNW pfet_05v0 W=1.07e-06 L=5e-07
M_i_5 VDD A2 Z_neg VNW pfet_05v0 W=1.07e-06 L=5e-07
M_i_1_0 Z Z_neg VDD VNW pfet_05v0 W=1.215e-06 L=5e-07
M_i_1_1 VDD Z_neg Z VNW pfet_05v0 W=1.215e-06 L=5e-07
.ENDS 

.SUBCKT AND2_X4_7T5P0 A1 A2 Z VDD VNW VPW VSS 
M_i_3_1 net_0_1 A2 VSS VPW nfet_05v0 W=7.75e-07 L=6e-07
M_i_2_1 Z_neg A1 net_0_1 VPW nfet_05v0 W=7.75e-07 L=6e-07
M_i_2_0 net_0_0 A1 Z_neg VPW nfet_05v0 W=7.75e-07 L=6e-07
M_i_3_0 VSS A2 net_0_0 VPW nfet_05v0 W=7.75e-07 L=6e-07
M_i_0_3 Z Z_neg VSS VPW nfet_05v0 W=7.75e-07 L=6e-07
M_i_0_2 VSS Z_neg Z VPW nfet_05v0 W=7.75e-07 L=6e-07
M_i_0_1 Z Z_neg VSS VPW nfet_05v0 W=7.75e-07 L=6e-07
M_i_0_0 VSS Z_neg Z VPW nfet_05v0 W=7.75e-07 L=6e-07
M_i_5_1 Z_neg A2 VDD VNW pfet_05v0 W=1.125e-06 L=5e-07
M_i_4_1 VDD A1 Z_neg VNW pfet_05v0 W=1.125e-06 L=5e-07
M_i_4_0 Z_neg A1 VDD VNW pfet_05v0 W=1.125e-06 L=5e-07
M_i_5_0 VDD A2 Z_neg VNW pfet_05v0 W=1.125e-06 L=5e-07
M_i_1_3 Z Z_neg VDD VNW pfet_05v0 W=1.215e-06 L=5e-07
M_i_1_2 VDD Z_neg Z VNW pfet_05v0 W=1.215e-06 L=5e-07
M_i_1_1 Z Z_neg VDD VNW pfet_05v0 W=1.215e-06 L=5e-07
M_i_1_0 VDD Z_neg Z VNW pfet_05v0 W=1.215e-06 L=5e-07
.ENDS 

.SUBCKT AND3_X1_7T5P0 A1 A2 A3 Z VDD VNW VPW VSS 
M_i_2 net_0 A1 Z_neg VPW nfet_05v0 W=3.8e-07 L=6e-07
M_i_3 net_1 A2 net_0 VPW nfet_05v0 W=3.8e-07 L=6e-07
M_i_4 VSS A3 net_1 VPW nfet_05v0 W=3.8e-07 L=6e-07
M_i_0 Z Z_neg VSS VPW nfet_05v0 W=7.75e-07 L=6e-07
M_i_5 VDD A1 Z_neg VNW pfet_05v0 W=5.35e-07 L=5e-07
M_i_6 Z_neg A2 VDD VNW pfet_05v0 W=5.35e-07 L=5e-07
M_i_7 VDD A3 Z_neg VNW pfet_05v0 W=5.35e-07 L=5e-07
M_i_1 Z Z_neg VDD VNW pfet_05v0 W=1.215e-06 L=5e-07
.ENDS 

.SUBCKT AND3_X2_7T5P0 A1 A2 A3 Z VDD VNW VPW VSS 
M_i_2 net_0 A1 Z_neg VPW nfet_05v0 W=8.15e-07 L=6e-07
M_i_3 net_1 A2 net_0 VPW nfet_05v0 W=8.15e-07 L=6e-07
M_i_4 VSS A3 net_1 VPW nfet_05v0 W=8.15e-07 L=6e-07
M_i_0_0 Z Z_neg VSS VPW nfet_05v0 W=8.15e-07 L=6e-07
M_i_0_1 VSS Z_neg Z VPW nfet_05v0 W=8.15e-07 L=6e-07
M_i_5 VDD A1 Z_neg VNW pfet_05v0 W=9.85e-07 L=5e-07
M_i_6 Z_neg A2 VDD VNW pfet_05v0 W=9.85e-07 L=5e-07
M_i_7 VDD A3 Z_neg VNW pfet_05v0 W=9.85e-07 L=5e-07
M_i_1_0 Z Z_neg VDD VNW pfet_05v0 W=1.215e-06 L=5e-07
M_i_1_1 VDD Z_neg Z VNW pfet_05v0 W=1.215e-06 L=5e-07
.ENDS 

.SUBCKT AND3_X4_7T5P0 A1 A2 A3 Z VDD VNW VPW VSS 
M_i_4_0 net_1_1 A3 VSS VPW nfet_05v0 W=7.6e-07 L=6e-07
M_i_3_1 net_0_1 A2 net_1_1 VPW nfet_05v0 W=7.6e-07 L=6e-07
M_i_2_1 Z_neg A1 net_0_1 VPW nfet_05v0 W=7.6e-07 L=6e-07
M_i_2_0 net_0_0 A1 Z_neg VPW nfet_05v0 W=7.6e-07 L=6e-07
M_i_3_0 net_1_0 A2 net_0_0 VPW nfet_05v0 W=7.6e-07 L=6e-07
M_i_4_1 VSS A3 net_1_0 VPW nfet_05v0 W=7.6e-07 L=6e-07
M_i_0_3 Z Z_neg VSS VPW nfet_05v0 W=7.6e-07 L=6e-07
M_i_0_2 VSS Z_neg Z VPW nfet_05v0 W=7.6e-07 L=6e-07
M_i_0_1 Z Z_neg VSS VPW nfet_05v0 W=7.6e-07 L=6e-07
M_i_0_0 VSS Z_neg Z VPW nfet_05v0 W=7.6e-07 L=6e-07
M_i_7_0 Z_neg A3 VDD VNW pfet_05v0 W=1.22e-06 L=5e-07
M_i_6_1 VDD A2 Z_neg VNW pfet_05v0 W=1.22e-06 L=5e-07
M_i_5_1 Z_neg A1 VDD VNW pfet_05v0 W=1.22e-06 L=5e-07
M_i_5_0 VDD A1 Z_neg VNW pfet_05v0 W=1.22e-06 L=5e-07
M_i_6_0 Z_neg A2 VDD VNW pfet_05v0 W=1.22e-06 L=5e-07
M_i_7_1 VDD A3 Z_neg VNW pfet_05v0 W=1.22e-06 L=5e-07
M_i_1_3 Z Z_neg VDD VNW pfet_05v0 W=1.22e-06 L=5e-07
M_i_1_2 VDD Z_neg Z VNW pfet_05v0 W=1.22e-06 L=5e-07
M_i_1_1 Z Z_neg VDD VNW pfet_05v0 W=1.22e-06 L=5e-07
M_i_1_0 VDD Z_neg Z VNW pfet_05v0 W=1.22e-06 L=5e-07
.ENDS 

.SUBCKT AND4_X1_7T5P0 A1 A2 A3 A4 Z VDD VNW VPW VSS 
M_i_2 net_0 A1 Z_neg VPW nfet_05v0 W=4.2e-07 L=6e-07
M_i_3 net_1 A2 net_0 VPW nfet_05v0 W=4.2e-07 L=6e-07
M_i_4 net_2 A3 net_1 VPW nfet_05v0 W=4.2e-07 L=6e-07
M_i_5 VSS A4 net_2 VPW nfet_05v0 W=4.2e-07 L=6e-07
M_i_0 Z Z_neg VSS VPW nfet_05v0 W=8.15e-07 L=6e-07
M_i_6 Z_neg A1 VDD VNW pfet_05v0 W=6e-07 L=5e-07
M_i_7 VDD A2 Z_neg VNW pfet_05v0 W=6e-07 L=5e-07
M_i_8 Z_neg A3 VDD VNW pfet_05v0 W=6e-07 L=5e-07
M_i_9 VDD A4 Z_neg VNW pfet_05v0 W=6e-07 L=5e-07
M_i_1 Z Z_neg VDD VNW pfet_05v0 W=1.22e-06 L=5e-07
.ENDS 

.SUBCKT AND4_X2_7T5P0 A1 A2 A3 A4 Z VDD VNW VPW VSS 
M_i_2 net_0 A1 Z_neg VPW nfet_05v0 W=8.2e-07 L=6e-07
M_i_3 net_1 A2 net_0 VPW nfet_05v0 W=8.2e-07 L=6e-07
M_i_4 net_2 A3 net_1 VPW nfet_05v0 W=8.2e-07 L=6e-07
M_i_5 VSS A4 net_2 VPW nfet_05v0 W=8.2e-07 L=6e-07
M_i_0_0 Z Z_neg VSS VPW nfet_05v0 W=8.2e-07 L=6e-07
M_i_0_1 VSS Z_neg Z VPW nfet_05v0 W=8.2e-07 L=6e-07
M_i_6 Z_neg A1 VDD VNW pfet_05v0 W=8.55e-07 L=5e-07
M_i_7 VDD A2 Z_neg VNW pfet_05v0 W=8.55e-07 L=5e-07
M_i_8 Z_neg A3 VDD VNW pfet_05v0 W=8.55e-07 L=5e-07
M_i_9 VDD A4 Z_neg VNW pfet_05v0 W=8.55e-07 L=5e-07
M_i_1_0 Z Z_neg VDD VNW pfet_05v0 W=1.22e-06 L=5e-07
M_i_1_1 VDD Z_neg Z VNW pfet_05v0 W=1.22e-06 L=5e-07
.ENDS 

.SUBCKT AND4_X4_7T5P0 A1 A2 A3 A4 Z VDD VNW VPW VSS 
M_i_5_1 net_2_1 A4 VSS VPW nfet_05v0 W=6.45e-07 L=6e-07
M_i_4_1 net_1_1 A3 net_2_1 VPW nfet_05v0 W=6.45e-07 L=6e-07
M_i_3_1 net_0_1 A2 net_1_1 VPW nfet_05v0 W=6.45e-07 L=6e-07
M_i_2_1 Z_neg A1 net_0_1 VPW nfet_05v0 W=6.45e-07 L=6e-07
M_i_2_0 net_0_0 A1 Z_neg VPW nfet_05v0 W=6.45e-07 L=6e-07
M_i_3_0 net_1_0 A2 net_0_0 VPW nfet_05v0 W=6.45e-07 L=6e-07
M_i_4_0 net_2_0 A3 net_1_0 VPW nfet_05v0 W=6.45e-07 L=6e-07
M_i_5_0 VSS A4 net_2_0 VPW nfet_05v0 W=6.45e-07 L=6e-07
M_i_0_3 Z Z_neg VSS VPW nfet_05v0 W=6.45e-07 L=6e-07
M_i_0_2 VSS Z_neg Z VPW nfet_05v0 W=6.45e-07 L=6e-07
M_i_0_1 Z Z_neg VSS VPW nfet_05v0 W=6.45e-07 L=6e-07
M_i_0_0 VSS Z_neg Z VPW nfet_05v0 W=6.45e-07 L=6e-07
M_i_9_1 Z_neg A4 VDD VNW pfet_05v0 W=1.11e-06 L=5e-07
M_i_8_1 VDD A3 Z_neg VNW pfet_05v0 W=1.11e-06 L=5e-07
M_i_7_1 Z_neg A2 VDD VNW pfet_05v0 W=1.11e-06 L=5e-07
M_i_6_1 VDD A1 Z_neg VNW pfet_05v0 W=1.11e-06 L=5e-07
M_i_6_0 Z_neg A1 VDD VNW pfet_05v0 W=1.11e-06 L=5e-07
M_i_7_0 VDD A2 Z_neg VNW pfet_05v0 W=1.11e-06 L=5e-07
M_i_8_0 Z_neg A3 VDD VNW pfet_05v0 W=1.11e-06 L=5e-07
M_i_9_0 VDD A4 Z_neg VNW pfet_05v0 W=1.11e-06 L=5e-07
M_i_1_3 Z Z_neg VDD VNW pfet_05v0 W=1.22e-06 L=5e-07
M_i_1_2 VDD Z_neg Z VNW pfet_05v0 W=1.22e-06 L=5e-07
M_i_1_1 Z Z_neg VDD VNW pfet_05v0 W=1.22e-06 L=5e-07
M_i_1_0 VDD Z_neg Z VNW pfet_05v0 W=1.22e-06 L=5e-07
.ENDS 

.SUBCKT ANTENNA_7T5P0 I VDD VNW VPW VSS 
d0 VPW I diode_nd2ps_06v0 0.2052p 1.86u $m=1
d1 I VNW diode_pd2nw_06v0 0.2052p 1.86u $m=1
.ENDS 

.SUBCKT AOI211_X1_7T5P0 A1 A2 B C ZN VDD VNW VPW VSS 
M_i_1 net_0 A2 VSS VPW nfet_05v0 W=7.1e-07 L=6e-07
M_i_0 ZN A1 net_0 VPW nfet_05v0 W=7.1e-07 L=6e-07
M_i_2 VSS B ZN VPW nfet_05v0 W=4.65e-07 L=6e-07
M_i_3 ZN C VSS VPW nfet_05v0 W=4.65e-07 L=6e-07
M_i_5 ZN A2 net_1 VNW pfet_05v0 W=1.215e-06 L=5e-07
M_i_4 net_1 A1 ZN VNW pfet_05v0 W=1.215e-06 L=5e-07
M_i_6 net_2 B net_1 VNW pfet_05v0 W=1.215e-06 L=5e-07
M_i_7 VDD C net_2 VNW pfet_05v0 W=1.215e-06 L=5e-07
.ENDS 

.SUBCKT AOI211_X2_7T5P0 A1 A2 B C ZN VDD VNW VPW VSS 
M_i_1_1 net_0_0 A2 VSS VPW nfet_05v0 W=7.8e-07 L=6e-07
M_i_0_1 ZN A1 net_0_0 VPW nfet_05v0 W=7.8e-07 L=6e-07
M_i_0_0 net_0_1 A1 ZN VPW nfet_05v0 W=7.8e-07 L=6e-07
M_i_1_0 VSS A2 net_0_1 VPW nfet_05v0 W=7.8e-07 L=6e-07
M_i_2_0 ZN B VSS VPW nfet_05v0 W=5.15e-07 L=6e-07
M_i_3_0 VSS C ZN VPW nfet_05v0 W=5.15e-07 L=6e-07
M_i_3_1 ZN C VSS VPW nfet_05v0 W=5.15e-07 L=6e-07
M_i_2_1 VSS B ZN VPW nfet_05v0 W=5.15e-07 L=6e-07
M_i_5_1 ZN A2 net_1 VNW pfet_05v0 W=1.14e-06 L=5e-07
M_i_4_1 net_1 A1 ZN VNW pfet_05v0 W=1.14e-06 L=5e-07
M_i_4_0 ZN A1 net_1 VNW pfet_05v0 W=1.14e-06 L=5e-07
M_i_5_0 net_1 A2 ZN VNW pfet_05v0 W=1.14e-06 L=5e-07
M_i_6_0 net_2_0 B net_1 VNW pfet_05v0 W=1.14e-06 L=5e-07
M_i_7_0 VDD C net_2_0 VNW pfet_05v0 W=1.14e-06 L=5e-07
M_i_7_1 net_2_1 C VDD VNW pfet_05v0 W=1.14e-06 L=5e-07
M_i_6_1 net_1 B net_2_1 VNW pfet_05v0 W=1.14e-06 L=5e-07
.ENDS 

.SUBCKT AOI211_X4_7T5P0 A1 A2 B C ZN VDD VNW VPW VSS 
M_i_1_3 net_0_0 A2 VSS VPW nfet_05v0 W=7.7e-07 L=6e-07
M_i_0_3 ZN A1 net_0_0 VPW nfet_05v0 W=7.7e-07 L=6e-07
M_i_0_2 net_0_1 A1 ZN VPW nfet_05v0 W=7.7e-07 L=6e-07
M_i_1_2 VSS A2 net_0_1 VPW nfet_05v0 W=7.7e-07 L=6e-07
M_i_1_1 net_0_2 A2 VSS VPW nfet_05v0 W=7.7e-07 L=6e-07
M_i_0_1 ZN A1 net_0_2 VPW nfet_05v0 W=7.7e-07 L=6e-07
M_i_0_0 net_0_3 A1 ZN VPW nfet_05v0 W=7.7e-07 L=6e-07
M_i_1_0 VSS A2 net_0_3 VPW nfet_05v0 W=7.7e-07 L=6e-07
M_i_2_0 ZN B VSS VPW nfet_05v0 W=4.6e-07 L=6e-07
M_i_3_0 VSS C ZN VPW nfet_05v0 W=4.6e-07 L=6e-07
M_i_3_1 ZN C VSS VPW nfet_05v0 W=4.6e-07 L=6e-07
M_i_2_1 VSS B ZN VPW nfet_05v0 W=4.6e-07 L=6e-07
M_i_2_2 ZN B VSS VPW nfet_05v0 W=4.6e-07 L=6e-07
M_i_3_2 VSS C ZN VPW nfet_05v0 W=4.6e-07 L=6e-07
M_i_3_3 ZN C VSS VPW nfet_05v0 W=4.6e-07 L=6e-07
M_i_2_3 VSS B ZN VPW nfet_05v0 W=4.6e-07 L=6e-07
M_i_5_3 ZN A2 net_1 VNW pfet_05v0 W=1.22e-06 L=5e-07
M_i_4_3 net_1 A1 ZN VNW pfet_05v0 W=1.22e-06 L=5e-07
M_i_4_2 ZN A1 net_1 VNW pfet_05v0 W=1.22e-06 L=5e-07
M_i_5_2 net_1 A2 ZN VNW pfet_05v0 W=1.22e-06 L=5e-07
M_i_5_1 ZN A2 net_1 VNW pfet_05v0 W=1.22e-06 L=5e-07
M_i_4_1 net_1 A1 ZN VNW pfet_05v0 W=1.22e-06 L=5e-07
M_i_4_0 ZN A1 net_1 VNW pfet_05v0 W=1.22e-06 L=5e-07
M_i_5_0 net_1 A2 ZN VNW pfet_05v0 W=1.22e-06 L=5e-07
M_i_6_0 net_2_0 B net_1 VNW pfet_05v0 W=1.22e-06 L=5e-07
M_i_7_0 VDD C net_2_0 VNW pfet_05v0 W=1.22e-06 L=5e-07
M_i_7_1 net_2_1 C VDD VNW pfet_05v0 W=1.22e-06 L=5e-07
M_i_6_1 net_1 B net_2_1 VNW pfet_05v0 W=1.22e-06 L=5e-07
M_i_6_2 net_2_2 B net_1 VNW pfet_05v0 W=1.22e-06 L=5e-07
M_i_7_2 VDD C net_2_2 VNW pfet_05v0 W=1.22e-06 L=5e-07
M_i_7_3 net_2_3 C VDD VNW pfet_05v0 W=1.22e-06 L=5e-07
M_i_6_3 net_1 B net_2_3 VNW pfet_05v0 W=1.22e-06 L=5e-07
.ENDS 

.SUBCKT AOI21_X1_7T5P0 A1 A2 B ZN VDD VNW VPW VSS 
M_i_1 net_0 A2 VSS VPW nfet_05v0 W=8.2e-07 L=6e-07
M_i_0 ZN A1 net_0 VPW nfet_05v0 W=8.2e-07 L=6e-07
M_i_2 VSS B ZN VPW nfet_05v0 W=5.1e-07 L=6e-07
M_i_4 ZN A2 net_1 VNW pfet_05v0 W=1.215e-06 L=5e-07
M_i_3 net_1 A1 ZN VNW pfet_05v0 W=1.215e-06 L=5e-07
M_i_5 VDD B net_1 VNW pfet_05v0 W=1.215e-06 L=5e-07
.ENDS 

.SUBCKT AOI21_X2_7T5P0 A1 A2 B ZN VDD VNW VPW VSS 
M_i_2_0 ZN B VSS VPW nfet_05v0 W=5.65e-07 L=6e-07
M_i_2_1 VSS B ZN VPW nfet_05v0 W=5.65e-07 L=6e-07
M_i_1_0 net_0_0 A2 VSS VPW nfet_05v0 W=7.75e-07 L=6e-07
M_i_0_1 ZN A1 net_0_0 VPW nfet_05v0 W=7.75e-07 L=6e-07
M_i_0_0 net_0_1 A1 ZN VPW nfet_05v0 W=7.75e-07 L=6e-07
M_i_1_1 VSS A2 net_0_1 VPW nfet_05v0 W=7.75e-07 L=6e-07
M_i_5_0 VDD B net_1 VNW pfet_05v0 W=1.215e-06 L=5e-07
M_i_5_1 net_1 B VDD VNW pfet_05v0 W=1.215e-06 L=5e-07
M_i_4_0 ZN A2 net_1 VNW pfet_05v0 W=1.215e-06 L=5e-07
M_i_3_1 net_1 A1 ZN VNW pfet_05v0 W=1.215e-06 L=5e-07
M_i_3_0 ZN A1 net_1 VNW pfet_05v0 W=1.215e-06 L=5e-07
M_i_4_1 net_1 A2 ZN VNW pfet_05v0 W=1.215e-06 L=5e-07
.ENDS 

.SUBCKT AOI21_X4_7T5P0 A1 A2 B ZN VDD VNW VPW VSS 
M_i_1_3 net_0_0 A2 VSS VPW nfet_05v0 W=8.2e-07 L=6e-07
M_i_0_3 ZN A1 net_0_0 VPW nfet_05v0 W=8.2e-07 L=6e-07
M_i_0_2 net_0_1 A1 ZN VPW nfet_05v0 W=8.2e-07 L=6e-07
M_i_1_2 VSS A2 net_0_1 VPW nfet_05v0 W=8.2e-07 L=6e-07
M_i_1_1 net_0_2 A2 VSS VPW nfet_05v0 W=8.2e-07 L=6e-07
M_i_0_1 ZN A1 net_0_2 VPW nfet_05v0 W=8.2e-07 L=6e-07
M_i_0_0 net_0_3 A1 ZN VPW nfet_05v0 W=8.2e-07 L=6e-07
M_i_1_0 VSS A2 net_0_3 VPW nfet_05v0 W=8.2e-07 L=6e-07
M_i_2_3 ZN B VSS VPW nfet_05v0 W=5.1e-07 L=6e-07
M_i_2_2 VSS B ZN VPW nfet_05v0 W=5.1e-07 L=6e-07
M_i_2_1 ZN B VSS VPW nfet_05v0 W=5.1e-07 L=6e-07
M_i_2_0 VSS B ZN VPW nfet_05v0 W=5.1e-07 L=6e-07
M_i_4_3 ZN A2 net_1 VNW pfet_05v0 W=1.2e-06 L=5e-07
M_i_3_3 net_1 A1 ZN VNW pfet_05v0 W=1.2e-06 L=5e-07
M_i_3_2 ZN A1 net_1 VNW pfet_05v0 W=1.2e-06 L=5e-07
M_i_4_2 net_1 A2 ZN VNW pfet_05v0 W=1.2e-06 L=5e-07
M_i_4_1 ZN A2 net_1 VNW pfet_05v0 W=1.2e-06 L=5e-07
M_i_3_1 net_1 A1 ZN VNW pfet_05v0 W=1.2e-06 L=5e-07
M_i_3_0 ZN A1 net_1 VNW pfet_05v0 W=1.2e-06 L=5e-07
M_i_4_0 net_1 A2 ZN VNW pfet_05v0 W=1.2e-06 L=5e-07
M_i_5_3 VDD B net_1 VNW pfet_05v0 W=1.2e-06 L=5e-07
M_i_5_2 net_1 B VDD VNW pfet_05v0 W=1.2e-06 L=5e-07
M_i_5_1 VDD B net_1 VNW pfet_05v0 W=1.2e-06 L=5e-07
M_i_5_0 net_1 B VDD VNW pfet_05v0 W=1.2e-06 L=5e-07
.ENDS 

.SUBCKT AOI221_X1_7T5P0 A1 A2 B1 B2 C ZN VDD VNW VPW VSS 
M_i_4 net_1 B2 VSS VPW nfet_05v0 W=7.1e-07 L=6e-07
M_i_3 ZN B1 net_1 VPW nfet_05v0 W=7.1e-07 L=6e-07
M_i_2 VSS C ZN VPW nfet_05v0 W=4.65e-07 L=6e-07
M_i_1 net_0 A2 VSS VPW nfet_05v0 W=7.1e-07 L=6e-07
M_i_0 ZN A1 net_0 VPW nfet_05v0 W=7.1e-07 L=6e-07
M_i_9 VDD B2 net_3 VNW pfet_05v0 W=1.215e-06 L=5e-07
M_i_8 net_3 B1 VDD VNW pfet_05v0 W=1.215e-06 L=5e-07
M_i_7 net_2 C net_3 VNW pfet_05v0 W=1.215e-06 L=5e-07
M_i_6 ZN A2 net_2 VNW pfet_05v0 W=1.215e-06 L=5e-07
M_i_5 net_2 A1 ZN VNW pfet_05v0 W=1.215e-06 L=5e-07
.ENDS 

.SUBCKT AOI221_X2_7T5P0 A1 A2 B1 B2 C ZN VDD VNW VPW VSS 
M_i_2_1 VSS C ZN VPW nfet_05v0 W=4.05e-07 L=6e-07
M_i_4_1 net_1_0 B2 VSS VPW nfet_05v0 W=7.15e-07 L=6e-07
M_i_3_1 ZN B1 net_1_0 VPW nfet_05v0 W=7.15e-07 L=6e-07
M_i_3_0 net_1_1 B1 ZN VPW nfet_05v0 W=7.15e-07 L=6e-07
M_i_4_0 VSS B2 net_1_1 VPW nfet_05v0 W=7.15e-07 L=6e-07
M_i_2_0 ZN C VSS VPW nfet_05v0 W=5.75e-07 L=6e-07
M_i_0_1 net_0_0 A1 ZN VPW nfet_05v0 W=7.15e-07 L=6e-07
M_i_1_1 VSS A2 net_0_0 VPW nfet_05v0 W=7.15e-07 L=6e-07
M_i_1_0 net_0_1 A2 VSS VPW nfet_05v0 W=7.15e-07 L=6e-07
M_i_0_0 ZN A1 net_0_1 VPW nfet_05v0 W=7.15e-07 L=6e-07
M_i_7_1 net_3 C net_2 VNW pfet_05v0 W=1.12e-06 L=5e-07
M_i_9_1 VDD B2 net_3 VNW pfet_05v0 W=1.12e-06 L=5e-07
M_i_8_1 net_3 B1 VDD VNW pfet_05v0 W=1.12e-06 L=5e-07
M_i_8_0 VDD B1 net_3 VNW pfet_05v0 W=1.12e-06 L=5e-07
M_i_9_0 net_3 B2 VDD VNW pfet_05v0 W=1.12e-06 L=5e-07
M_i_7_0 net_2 C net_3 VNW pfet_05v0 W=1.12e-06 L=5e-07
M_i_5_1 ZN A1 net_2 VNW pfet_05v0 W=1.12e-06 L=5e-07
M_i_6_1 net_2 A2 ZN VNW pfet_05v0 W=1.12e-06 L=5e-07
M_i_6_0 ZN A2 net_2 VNW pfet_05v0 W=1.12e-06 L=5e-07
M_i_5_0 net_2 A1 ZN VNW pfet_05v0 W=1.12e-06 L=5e-07
.ENDS 

.SUBCKT AOI221_X4_7T5P0 A1 A2 B1 B2 C ZN VDD VNW VPW VSS 
M_i_3_3 net_1_0 B1 ZN VPW nfet_05v0 W=7.7e-07 L=6e-07
M_i_4_3 VSS B2 net_1_0 VPW nfet_05v0 W=7.7e-07 L=6e-07
M_i_4_2 net_1_1 B2 VSS VPW nfet_05v0 W=7.7e-07 L=6e-07
M_i_3_2 ZN B1 net_1_1 VPW nfet_05v0 W=7.7e-07 L=6e-07
M_i_3_1 net_1_2 B1 ZN VPW nfet_05v0 W=7.7e-07 L=6e-07
M_i_4_1 VSS B2 net_1_2 VPW nfet_05v0 W=7.7e-07 L=6e-07
M_i_4_0 net_1_3 B2 VSS VPW nfet_05v0 W=7.7e-07 L=6e-07
M_i_3_0 ZN B1 net_1_3 VPW nfet_05v0 W=7.7e-07 L=6e-07
M_i_2_3 VSS C ZN VPW nfet_05v0 W=4.8e-07 L=6e-07
M_i_2_2 ZN C VSS VPW nfet_05v0 W=4.8e-07 L=6e-07
M_i_2_1 VSS C ZN VPW nfet_05v0 W=4.8e-07 L=6e-07
M_i_2_0 ZN C VSS VPW nfet_05v0 W=4.8e-07 L=6e-07
M_i_0_3 net_0_0 A1 ZN VPW nfet_05v0 W=7.7e-07 L=6e-07
M_i_1_3 VSS A2 net_0_0 VPW nfet_05v0 W=7.7e-07 L=6e-07
M_i_1_2 net_0_1 A2 VSS VPW nfet_05v0 W=7.7e-07 L=6e-07
M_i_0_2 ZN A1 net_0_1 VPW nfet_05v0 W=7.7e-07 L=6e-07
M_i_0_1 net_0_2 A1 ZN VPW nfet_05v0 W=7.7e-07 L=6e-07
M_i_1_1 VSS A2 net_0_2 VPW nfet_05v0 W=7.7e-07 L=6e-07
M_i_1_0 net_0_3 A2 VSS VPW nfet_05v0 W=7.7e-07 L=6e-07
M_i_0_0 ZN A1 net_0_3 VPW nfet_05v0 W=7.7e-07 L=6e-07
M_i_8_3 net_3 B1 VDD VNW pfet_05v0 W=1.035e-06 L=5e-07
M_i_9_3 VDD B2 net_3 VNW pfet_05v0 W=1.035e-06 L=5e-07
M_i_9_2 net_3 B2 VDD VNW pfet_05v0 W=1.035e-06 L=5e-07
M_i_8_2 VDD B1 net_3 VNW pfet_05v0 W=1.035e-06 L=5e-07
M_i_8_1 net_3 B1 VDD VNW pfet_05v0 W=1.035e-06 L=5e-07
M_i_9_1 VDD B2 net_3 VNW pfet_05v0 W=1.035e-06 L=5e-07
M_i_9_0 net_3 B2 VDD VNW pfet_05v0 W=1.035e-06 L=5e-07
M_i_8_0 VDD B1 net_3 VNW pfet_05v0 W=1.035e-06 L=5e-07
M_i_7_3 net_3 C net_2 VNW pfet_05v0 W=1.215e-06 L=5e-07
M_i_7_2 net_2 C net_3 VNW pfet_05v0 W=1.215e-06 L=5e-07
M_i_7_1 net_3 C net_2 VNW pfet_05v0 W=1.215e-06 L=5e-07
M_i_7_0 net_2 C net_3 VNW pfet_05v0 W=1.215e-06 L=5e-07
M_i_5_3 ZN A1 net_2 VNW pfet_05v0 W=1.215e-06 L=5e-07
M_i_6_3 net_2 A2 ZN VNW pfet_05v0 W=1.215e-06 L=5e-07
M_i_6_2 ZN A2 net_2 VNW pfet_05v0 W=1.215e-06 L=5e-07
M_i_5_2 net_2 A1 ZN VNW pfet_05v0 W=1.215e-06 L=5e-07
M_i_5_1 ZN A1 net_2 VNW pfet_05v0 W=1.215e-06 L=5e-07
M_i_6_1 net_2 A2 ZN VNW pfet_05v0 W=1.215e-06 L=5e-07
M_i_6_0 ZN A2 net_2 VNW pfet_05v0 W=1.215e-06 L=5e-07
M_i_5_0 net_2 A1 ZN VNW pfet_05v0 W=1.215e-06 L=5e-07
.ENDS 

.SUBCKT AOI222_X1_7T5P0 A1 A2 B1 B2 C1 C2 ZN VDD VNW VPW VSS 
M_i_5 net_2 C2 VSS VPW nfet_05v0 W=8.2e-07 L=6e-07
M_i_4 ZN C1 net_2 VPW nfet_05v0 W=8.2e-07 L=6e-07
M_i_2 net_1 B1 ZN VPW nfet_05v0 W=8.2e-07 L=6e-07
M_i_3 VSS B2 net_1 VPW nfet_05v0 W=8.2e-07 L=6e-07
M_i_1 net_0 A2 VSS VPW nfet_05v0 W=8.2e-07 L=6e-07
M_i_0 ZN A1 net_0 VPW nfet_05v0 W=8.2e-07 L=6e-07
M_i_11 net_4 C2 VDD VNW pfet_05v0 W=1.16e-06 L=5e-07
M_i_10 VDD C1 net_4 VNW pfet_05v0 W=1.16e-06 L=5e-07
M_i_8 net_4 B1 net_3 VNW pfet_05v0 W=1.16e-06 L=5e-07
M_i_9 net_3 B2 net_4 VNW pfet_05v0 W=1.16e-06 L=5e-07
M_i_7 ZN A2 net_3 VNW pfet_05v0 W=1.16e-06 L=5e-07
M_i_6 net_3 A1 ZN VNW pfet_05v0 W=1.16e-06 L=5e-07
.ENDS 

.SUBCKT AOI222_X2_7T5P0 A1 A2 B1 B2 C1 C2 ZN VDD VNW VPW VSS 
M_i_4_1 net_2_1 C1 ZN VPW nfet_05v0 W=8e-07 L=6e-07
M_i_5_1 VSS C2 net_2_1 VPW nfet_05v0 W=8e-07 L=6e-07
M_i_5_0 net_2_0 C2 VSS VPW nfet_05v0 W=8e-07 L=6e-07
M_i_4_0 ZN C1 net_2_0 VPW nfet_05v0 W=8e-07 L=6e-07
M_i_2_0 net_1_1 B1 ZN VPW nfet_05v0 W=8e-07 L=6e-07
M_i_3_0 VSS B2 net_1_1 VPW nfet_05v0 W=8e-07 L=6e-07
M_i_3_1 net_1_0 B2 VSS VPW nfet_05v0 W=8e-07 L=6e-07
M_i_2_1 ZN B1 net_1_0 VPW nfet_05v0 W=8e-07 L=6e-07
M_i_0_0 net_0_1 A1 ZN VPW nfet_05v0 W=8e-07 L=6e-07
M_i_1_0 VSS A2 net_0_1 VPW nfet_05v0 W=8e-07 L=6e-07
M_i_1_1 net_0_0 A2 VSS VPW nfet_05v0 W=8e-07 L=6e-07
M_i_0_1 ZN A1 net_0_0 VPW nfet_05v0 W=8e-07 L=6e-07
M_i_10_1 net_4 C1 VDD VNW pfet_05v0 W=1.22e-06 L=5e-07
M_i_11_1 VDD C2 net_4 VNW pfet_05v0 W=1.22e-06 L=5e-07
M_i_11_0 net_4 C2 VDD VNW pfet_05v0 W=1.22e-06 L=5e-07
M_i_10_0 VDD C1 net_4 VNW pfet_05v0 W=1.22e-06 L=5e-07
M_i_8_0 net_4 B1 net_3 VNW pfet_05v0 W=1.22e-06 L=5e-07
M_i_9_0 net_3 B2 net_4 VNW pfet_05v0 W=1.22e-06 L=5e-07
M_i_9_1 net_4 B2 net_3 VNW pfet_05v0 W=1.22e-06 L=5e-07
M_i_8_1 net_3 B1 net_4 VNW pfet_05v0 W=1.22e-06 L=5e-07
M_i_6_0 ZN A1 net_3 VNW pfet_05v0 W=1.22e-06 L=5e-07
M_i_7_0 net_3 A2 ZN VNW pfet_05v0 W=1.22e-06 L=5e-07
M_i_7_1 ZN A2 net_3 VNW pfet_05v0 W=1.22e-06 L=5e-07
M_i_6_1 net_3 A1 ZN VNW pfet_05v0 W=1.22e-06 L=5e-07
.ENDS 

.SUBCKT AOI222_X4_7T5P0 A1 A2 B1 B2 C1 C2 ZN VDD VNW VPW VSS 
M_i_4_3 net_2_3 C1 ZN VPW nfet_05v0 W=8.2e-07 L=6e-07
M_i_5_3 VSS C2 net_2_3 VPW nfet_05v0 W=8.2e-07 L=6e-07
M_i_5_2 net_2_2 C2 VSS VPW nfet_05v0 W=8.2e-07 L=6e-07
M_i_4_2 ZN C1 net_2_2 VPW nfet_05v0 W=8.2e-07 L=6e-07
M_i_4_1 net_2_1 C1 ZN VPW nfet_05v0 W=8.2e-07 L=6e-07
M_i_5_1 VSS C2 net_2_1 VPW nfet_05v0 W=8.2e-07 L=6e-07
M_i_5_0 net_2_0 C2 VSS VPW nfet_05v0 W=8.2e-07 L=6e-07
M_i_4_0 ZN C1 net_2_0 VPW nfet_05v0 W=8.2e-07 L=6e-07
M_i_2_0 net_1_3 B1 ZN VPW nfet_05v0 W=8.2e-07 L=6e-07
M_i_3_0 VSS B2 net_1_3 VPW nfet_05v0 W=8.2e-07 L=6e-07
M_i_3_1 net_1_2 B2 VSS VPW nfet_05v0 W=8.2e-07 L=6e-07
M_i_2_1 ZN B1 net_1_2 VPW nfet_05v0 W=8.2e-07 L=6e-07
M_i_2_2 net_1_1 B1 ZN VPW nfet_05v0 W=8.2e-07 L=6e-07
M_i_3_2 VSS B2 net_1_1 VPW nfet_05v0 W=8.2e-07 L=6e-07
M_i_3_3 net_1_0 B2 VSS VPW nfet_05v0 W=8.2e-07 L=6e-07
M_i_2_3 ZN B1 net_1_0 VPW nfet_05v0 W=8.2e-07 L=6e-07
M_i_0_0 net_0_3 A1 ZN VPW nfet_05v0 W=8.2e-07 L=6e-07
M_i_1_0 VSS A2 net_0_3 VPW nfet_05v0 W=8.2e-07 L=6e-07
M_i_1_1 net_0_2 A2 VSS VPW nfet_05v0 W=8.2e-07 L=6e-07
M_i_0_1 ZN A1 net_0_2 VPW nfet_05v0 W=8.2e-07 L=6e-07
M_i_0_2 net_0_1 A1 ZN VPW nfet_05v0 W=8.2e-07 L=6e-07
M_i_1_2 VSS A2 net_0_1 VPW nfet_05v0 W=8.2e-07 L=6e-07
M_i_1_3 net_0_0 A2 VSS VPW nfet_05v0 W=8.2e-07 L=6e-07
M_i_0_3 ZN A1 net_0_0 VPW nfet_05v0 W=8.2e-07 L=6e-07
M_i_10_3 net_4 C1 VDD VNW pfet_05v0 W=1.22e-06 L=5e-07
M_i_11_3 VDD C2 net_4 VNW pfet_05v0 W=1.22e-06 L=5e-07
M_i_11_2 net_4 C2 VDD VNW pfet_05v0 W=1.22e-06 L=5e-07
M_i_10_2 VDD C1 net_4 VNW pfet_05v0 W=1.22e-06 L=5e-07
M_i_10_1 net_4 C1 VDD VNW pfet_05v0 W=1.22e-06 L=5e-07
M_i_11_1 VDD C2 net_4 VNW pfet_05v0 W=1.22e-06 L=5e-07
M_i_11_0 net_4 C2 VDD VNW pfet_05v0 W=1.22e-06 L=5e-07
M_i_10_0 VDD C1 net_4 VNW pfet_05v0 W=1.22e-06 L=5e-07
M_i_8_0 net_4 B1 net_3 VNW pfet_05v0 W=1.22e-06 L=5e-07
M_i_9_0 net_3 B2 net_4 VNW pfet_05v0 W=1.22e-06 L=5e-07
M_i_9_1 net_4 B2 net_3 VNW pfet_05v0 W=1.22e-06 L=5e-07
M_i_8_1 net_3 B1 net_4 VNW pfet_05v0 W=1.22e-06 L=5e-07
M_i_8_2 net_4 B1 net_3 VNW pfet_05v0 W=1.22e-06 L=5e-07
M_i_9_2 net_3 B2 net_4 VNW pfet_05v0 W=1.22e-06 L=5e-07
M_i_9_3 net_4 B2 net_3 VNW pfet_05v0 W=1.22e-06 L=5e-07
M_i_8_3 net_3 B1 net_4 VNW pfet_05v0 W=1.22e-06 L=5e-07
M_i_6_0 ZN A1 net_3 VNW pfet_05v0 W=1.22e-06 L=5e-07
M_i_7_0 net_3 A2 ZN VNW pfet_05v0 W=1.22e-06 L=5e-07
M_i_7_1 ZN A2 net_3 VNW pfet_05v0 W=1.22e-06 L=5e-07
M_i_6_1 net_3 A1 ZN VNW pfet_05v0 W=1.22e-06 L=5e-07
M_i_6_2 ZN A1 net_3 VNW pfet_05v0 W=1.22e-06 L=5e-07
M_i_7_2 net_3 A2 ZN VNW pfet_05v0 W=1.22e-06 L=5e-07
M_i_7_3 ZN A2 net_3 VNW pfet_05v0 W=1.22e-06 L=5e-07