* 
* ******************************************************************************
* *                                                                            *
* *                   Copyright 2014, GlobalFoundries                          *
* *                           All rights reserved.                             *
* *                                                                            *
* *                                                                            *
* *                                                                            *
* * This file has been provided pursuant to a License Agreement containing     *
* * restrictions on its use. This file contains valuable trade secrets and     *
* * proprietary information of GlobalFoundries, and is protected by U.S. and   * 
* * international laws and/or treaties.                                        *
* *                                                                            *
* * The copyright notice(s) in this file does not indicate actual or intended  *
* * publication of this file.                                                  *
* *                                                                            *
* * revision: 1.1                                                              *
* ******************************************************************************
* 
* 
* Running on scgtgar01 
* Local time is now Wed, 19 Mar 2014, 11:50:33.
* Main process id is 23919.
*
********************************************************************************
*                                                                              *
* Cellname:   ADDF_X1.                                                         *
*                                                                              *
* Technology: gf018.                                                           *
* Format:     Cdl.                                                             *
*                                                                              *
* Written on scgtcs026                                                         *
* at 11:48:26 on Wed, 19 Mar 2014.                                             *
*                                                                              *
********************************************************************************

*.SCALE METER

.SUBCKT ADDF_X1 A B CI CO S VDD VNW VPW VSS 
*.PININFO A:I B:I CI:I CO:O S:O VDD:P VNW:P VPW:P VSS:G 
*.EQN CO=(((B * CI) + (B * A)) + (CI * A));S=!((!((B * CI) + !(B + CI)) * A) + !(!((B * CI) + !(B + CI)) + A))
M_M51 VSS net9 S VPW nfet_05v0 W=1.180000U L=0.600000U
M_M50 net49 A VSS VPW nfet_05v0 W=0.590000U L=0.600000U
M_M48 net47 B net49 VPW nfet_05v0 W=0.590000U L=0.600000U
M_M46 net9 CI net47 VPW nfet_05v0 W=0.590000U L=0.600000U
M_M41 net9 net7 net42 VPW nfet_05v0 W=0.590000U L=0.600000U
M_M43 net42 A VSS VPW nfet_05v0 W=0.590000U L=0.600000U
M_M44 VSS B net42 VPW nfet_05v0 W=0.590000U L=0.600000U
M_M45 net42 CI VSS VPW nfet_05v0 W=0.590000U L=0.600000U
M_M40 VSS B net5 VPW nfet_05v0 W=0.590000U L=0.600000U
M_M39 net5 A VSS VPW nfet_05v0 W=0.590000U L=0.600000U
M_M38 net7 CI net5 VPW nfet_05v0 W=0.590000U L=0.600000U
M_M37 net36 B net7 VPW nfet_05v0 W=0.590000U L=0.600000U
M_M35 VSS A net36 VPW nfet_05v0 W=0.590000U L=0.600000U
M_M34 CO net7 VSS VPW nfet_05v0 W=1.320000U L=0.600000U
M_M33 VDD net9 S VNW pfet_05v0 W=1.830000U L=0.500000U
M_M32 net31 A VDD VNW pfet_05v0 W=0.990000U L=0.500000U
M_M30 net29 B net31 VNW pfet_05v0 W=0.990000U L=0.500000U
M_M28 net9 CI net29 VNW pfet_05v0 W=0.990000U L=0.500000U
M_M24 net9 net7 net3 VNW pfet_05v0 W=0.990000U L=0.500000U
M_M25 net3 A VDD VNW pfet_05v0 W=0.990000U L=0.500000U
M_M26 VDD B net3 VNW pfet_05v0 W=0.990000U L=0.500000U
M_M27 net3 CI VDD VNW pfet_05v0 W=0.990000U L=0.500000U
M_M23 VDD B net1 VNW pfet_05v0 W=0.990000U L=0.500000U
M_M22 net1 A VDD VNW pfet_05v0 W=0.990000U L=0.500000U
M_M21 net7 CI net1 VNW pfet_05v0 W=0.990000U L=0.500000U
M_M20 net19 B net7 VNW pfet_05v0 W=0.990000U L=0.500000U
M_M18 VDD A net19 VNW pfet_05v0 W=0.990000U L=0.500000U
M_M17 CO net7 VDD VNW pfet_05v0 W=1.830000U L=0.500000U
.ENDS 

********************************************************************************
*                                                                              *
* Cellname:   ADDF_X2.                                                         *
*                                                                              *
* Technology: gf018.                                                           *
* Format:     Cdl.                                                             *
*                                                                              *
* Written on scgtcs001             *
* at 11:48:24 on Wed, 19 Mar 2014.                                             *
*                                                                              *
********************************************************************************
.SUBCKT ADDF_X2 A B CI CO S VDD VNW VPW VSS 
*.PININFO A:I B:I CI:I CO:O S:O VDD:P VNW:P VPW:P VSS:G 
*.EQN CO=(((B * CI) + (B * A)) + (CI * A));S=!((!((B * CI) + !(B + CI)) * A) + !(!((B * CI) + !(B + CI)) + A))
M_M51_17 VSS net9 S VPW nfet_05v0 W=1.320000U L=0.600000U
M_M51 VSS net9 S VPW nfet_05v0 W=1.320000U L=0.600000U
M_M50 net49 A VSS VPW nfet_05v0 W=0.800000U L=0.600000U
M_M48 net47 B net49 VPW nfet_05v0 W=0.800000U L=0.600000U
M_M46 net9 CI net47 VPW nfet_05v0 W=0.800000U L=0.600000U
M_M41 net9 net7 net42 VPW nfet_05v0 W=0.800000U L=0.600000U
M_M43 net42 A VSS VPW nfet_05v0 W=0.800000U L=0.600000U
M_M44 VSS B net42 VPW nfet_05v0 W=0.800000U L=0.600000U
M_M45 net42 CI VSS VPW nfet_05v0 W=0.800000U L=0.600000U
M_M40 VSS B net5 VPW nfet_05v0 W=0.800000U L=0.600000U
M_M39 net5 A VSS VPW nfet_05v0 W=0.800000U L=0.600000U
M_M38 net7 CI net5 VPW nfet_05v0 W=0.800000U L=0.600000U
M_M37 net36 B net7 VPW nfet_05v0 W=0.800000U L=0.600000U
M_M35 VSS A net36 VPW nfet_05v0 W=0.800000U L=0.600000U
M_M34 CO net7 VSS VPW nfet_05v0 W=1.320000U L=0.600000U
M_M34_25 CO net7 VSS VPW nfet_05v0 W=1.320000U L=0.600000U
M_M33_12 VDD net9 S VNW pfet_05v0 W=1.800000U L=0.500000U
M_M33 VDD net9 S VNW pfet_05v0 W=1.800000U L=0.500000U
M_M32 net31 A VDD VNW pfet_05v0 W=1.390000U L=0.500000U
M_M30 net29 B net31 VNW pfet_05v0 W=1.390000U L=0.500000U
M_M28 net9 CI net29 VNW pfet_05v0 W=1.390000U L=0.500000U
M_M24 net9 net7 net3 VNW pfet_05v0 W=1.390000U L=0.500000U
M_M25 net3 A VDD VNW pfet_05v0 W=1.390000U L=0.500000U
M_M26 VDD B net3 VNW pfet_05v0 W=1.390000U L=0.500000U
M_M27 net3 CI VDD VNW pfet_05v0 W=1.390000U L=0.500000U
M_M23 VDD B net1 VNW pfet_05v0 W=1.390000U L=0.500000U
M_M22 net1 A VDD VNW pfet_05v0 W=1.390000U L=0.500000U
M_M21 net7 CI net1 VNW pfet_05v0 W=1.390000U L=0.500000U
M_M20 net19 B net7 VNW pfet_05v0 W=1.390000U L=0.500000U
M_M18 VDD A net19 VNW pfet_05v0 W=1.390000U L=0.500000U
M_M17 CO net7 VDD VNW pfet_05v0 W=1.800000U L=0.500000U
M_M17_23 CO net7 VDD VNW pfet_05v0 W=1.800000U L=0.500000U
.ENDS 

********************************************************************************
*                                                                              *
* Cellname:   ADDF_X4.                                                         *
*                                                                              *
* Technology: gf018.                                                           *
* Format:     Cdl.                                                             *
*                                                                              *
* Written on scgtcs008             *
* at 11:48:24 on Wed, 19 Mar 2014.                                             *
*                                                                              *
********************************************************************************
.SUBCKT ADDF_X4 A B CI CO S VDD VNW VPW VSS 
*.PININFO A:I B:I CI:I CO:O S:O VDD:P VNW:P VPW:P VSS:G 
*.EQN CO=(((B * CI) + (B * A)) + (CI * A));S=!((!((B * CI) + !(B + CI)) * A) + !(!((B * CI) + !(B + CI)) + A))
M_M51_17_0 VSS net9 S VPW nfet_05v0 W=1.320000U L=0.600000U
M_M51_18 VSS net9 S VPW nfet_05v0 W=1.320000U L=0.600000U
M_M51_17 VSS net9 S VPW nfet_05v0 W=1.320000U L=0.600000U
M_M51 VSS net9 S VPW nfet_05v0 W=1.320000U L=0.600000U
M_M50 net49 A VSS VPW nfet_05v0 W=0.800000U L=0.600000U
M_M48 net47 B net49 VPW nfet_05v0 W=0.800000U L=0.600000U
M_M46 net9 CI net47 VPW nfet_05v0 W=0.800000U L=0.600000U
M_M41 net9 net7 net42 VPW nfet_05v0 W=0.800000U L=0.600000U
M_M43 net42 A VSS VPW nfet_05v0 W=0.800000U L=0.600000U
M_M44 VSS B net42 VPW nfet_05v0 W=0.800000U L=0.600000U
M_M45 net42 CI VSS VPW nfet_05v0 W=0.800000U L=0.600000U
M_M40 VSS B net5 VPW nfet_05v0 W=0.800000U L=0.600000U
M_M39 net5 A VSS VPW nfet_05v0 W=0.800000U L=0.600000U
M_M38 net7 CI net5 VPW nfet_05v0 W=0.800000U L=0.600000U
M_M37 net36 B net7 VPW nfet_05v0 W=0.800000U L=0.600000U
M_M35 VSS A net36 VPW nfet_05v0 W=0.800000U L=0.600000U
M_M34 CO net7 VSS VPW nfet_05v0 W=1.320000U L=0.600000U
M_M34_25 CO net7 VSS VPW nfet_05v0 W=1.320000U L=0.600000U
M_M34_53 CO net7 VSS VPW nfet_05v0 W=1.320000U L=0.600000U
M_M34_25_56 CO net7 VSS VPW nfet_05v0 W=1.320000U L=0.600000U
M_M33_12_23 VDD net9 S VNW pfet_05v0 W=1.830000U L=0.500000U
M_M33_34 VDD net9 S VNW pfet_05v0 W=1.830000U L=0.500000U
M_M33_12 VDD net9 S VNW pfet_05v0 W=1.830000U L=0.500000U
M_M33 VDD net9 S VNW pfet_05v0 W=1.830000U L=0.500000U
M_M32 net31 A VDD VNW pfet_05v0 W=1.390000U L=0.500000U
M_M30 net29 B net31 VNW pfet_05v0 W=1.390000U L=0.500000U
M_M28 net9 CI net29 VNW pfet_05v0 W=1.390000U L=0.500000U
M_M24 net9 net7 net3 VNW pfet_05v0 W=1.390000U L=0.500000U
M_M25 net3 A VDD VNW pfet_05v0 W=1.390000U L=0.500000U
M_M26 VDD B net3 VNW pfet_05v0 W=1.390000U L=0.500000U
M_M27 net3 CI VDD VNW pfet_05v0 W=1.390000U L=0.500000U
M_M23 VDD B net1 VNW pfet_05v0 W=1.390000U L=0.500000U
M_M22 net1 A VDD VNW pfet_05v0 W=1.390000U L=0.500000U
M_M21 net7 CI net1 VNW pfet_05v0 W=1.390000U L=0.500000U
M_M20 net19 B net7 VNW pfet_05v0 W=1.390000U L=0.500000U
M_M18 VDD A net19 VNW pfet_05v0 W=1.390000U L=0.500000U
M_M17 CO net7 VDD VNW pfet_05v0 W=1.830000U L=0.500000U
M_M17_23 CO net7 VDD VNW pfet_05v0 W=1.830000U L=0.500000U
M_M17_66 CO net7 VDD VNW pfet_05v0 W=1.830000U L=0.500000U
M_M17_23_46 CO net7 VDD VNW pfet_05v0 W=1.830000U L=0.500000U
.ENDS 

********************************************************************************
*                                                                              *
* Cellname:   ADDH_X1.                                                         *
*                                                                              *
* Technology: gf018.                                                           *
* Format:     Cdl.                                                             *
*                                                                              *
* Written on scgtcs026             *
* at 11:48:42 on Wed, 19 Mar 2014.                                             *
*                                                                              *
********************************************************************************
.SUBCKT ADDH_X1 A B CO S VDD VNW VPW VSS 
*.PININFO A:I B:I CO:O S:O VDD:P VNW:P VPW:P VSS:G 
*.EQN CO=(A * B);S=!((A * B) + !(A + B))
M_i_2 VSS NCO CO VPW nfet_05v0 W=1.320000U L=0.600000U
M_i_5 net_0 A VSS VPW nfet_05v0 W=0.660000U L=0.600000U
M_i_4 NCO B net_0 VPW nfet_05v0 W=0.660000U L=0.600000U
M_i_9 NS B net_1 VPW nfet_05v0 W=0.660000U L=0.600000U
M_i_8 net_1 A NS VPW nfet_05v0 W=0.660000U L=0.600000U
M_i_10 VSS NCO net_1 VPW nfet_05v0 W=0.660000U L=0.600000U
M_i_0 S NS VSS VPW nfet_05v0 W=1.320000U L=0.600000U
M_i_3 VDD NCO CO VNW pfet_05v0 W=1.830000U L=0.500000U
M_i_7 NCO A VDD VNW pfet_05v0 W=0.915000U L=0.500000U
M_i_6 VDD B NCO VNW pfet_05v0 W=0.915000U L=0.500000U
M_i_12 net_2 B VDD VNW pfet_05v0 W=0.915000U L=0.500000U
M_i_11 NS A net_2 VNW pfet_05v0 W=0.915000U L=0.500000U
M_i_13 VDD NCO NS VNW pfet_05v0 W=0.915000U L=0.500000U
M_i_1 S NS VDD VNW pfet_05v0 W=1.830000U L=0.500000U
.ENDS 

********************************************************************************
*                                                                              *
* Cellname:   ADDH_X2.                                                         *
*                                                                              *
* Technology: gf018.                                                           *
* Format:     Cdl.                                                             *
*                                                                              *
* Written on scgtcs001             *
* at 11:48:37 on Wed, 19 Mar 2014.                                             *
*                                                                              *
********************************************************************************
.SUBCKT ADDH_X2 A B CO S VDD VNW VPW VSS 
*.PININFO A:I B:I CO:O S:O VDD:P VNW:P VPW:P VSS:G 
*.EQN CO=(A * B);S=!((A * B) + !(A + B))
M_i_2_1 CO NCO VSS VPW nfet_05v0 W=1.320000U L=0.600000U
M_i_2_0 VSS NCO CO VPW nfet_05v0 W=1.320000U L=0.600000U
M_i_5 net_0 A VSS VPW nfet_05v0 W=1.320000U L=0.600000U
M_i_4 NCO B net_0 VPW nfet_05v0 W=1.320000U L=0.600000U
M_i_9 NS B net_1 VPW nfet_05v0 W=1.320000U L=0.600000U
M_i_8 net_1 A NS VPW nfet_05v0 W=1.320000U L=0.600000U
M_i_10 VSS NCO net_1 VPW nfet_05v0 W=1.320000U L=0.600000U
M_i_0_1 S NS VSS VPW nfet_05v0 W=1.320000U L=0.600000U
M_i_0_0 VSS NS S VPW nfet_05v0 W=1.320000U L=0.600000U
M_i_3_1 CO NCO VDD VNW pfet_05v0 W=1.830000U L=0.500000U
M_i_3_0 VDD NCO CO VNW pfet_05v0 W=1.830000U L=0.500000U
M_i_7 NCO A VDD VNW pfet_05v0 W=1.830000U L=0.500000U
M_i_6 VDD B NCO VNW pfet_05v0 W=1.830000U L=0.500000U
M_i_12 net_2 B VDD VNW pfet_05v0 W=1.830000U L=0.500000U
M_i_11 NS A net_2 VNW pfet_05v0 W=1.830000U L=0.500000U
M_i_13 VDD NCO NS VNW pfet_05v0 W=1.830000U L=0.500000U
M_i_1_1 S NS VDD VNW pfet_05v0 W=1.830000U L=0.500000U
M_i_1_0 VDD NS S VNW pfet_05v0 W=1.830000U L=0.500000U
.ENDS 

********************************************************************************
*                                                                              *
* Cellname:   ADDH_X4.                                                         *
*                                                                              *
* Technology: gf018.                                                           *
* Format:     Cdl.                                                             *
*                                                                              *
* Written on scgtcs026             *
* at 11:48:44 on Wed, 19 Mar 2014.                                             *
*                                                                              *
********************************************************************************
.SUBCKT ADDH_X4 A B CO S VDD VNW VPW VSS 
*.PININFO A:I B:I CO:O S:O VDD:P VNW:P VPW:P VSS:G 
*.EQN CO=(A * B);S=!((A * B) + !(A + B))
M_i_5_1 net_0_0 A VSS VPW nfet_05v0 W=1.320000U L=0.600000U
M_i_4_1 NCO B net_0_0 VPW nfet_05v0 W=1.320000U L=0.600000U
M_i_4_0 net_0_1 B NCO VPW nfet_05v0 W=1.320000U L=0.600000U
M_i_5_0 VSS A net_0_1 VPW nfet_05v0 W=1.320000U L=0.600000U
M_i_10_0 net_1 NCO VSS VPW nfet_05v0 W=0.880000U L=0.600000U
M_i_8_0 NS A net_1 VPW nfet_05v0 W=0.880000U L=0.600000U
M_i_9_0 net_1 B NS VPW nfet_05v0 W=0.880000U L=0.600000U
M_i_9_1 NS B net_1 VPW nfet_05v0 W=0.880000U L=0.600000U
M_i_8_1 net_1 A NS VPW nfet_05v0 W=0.880000U L=0.600000U
M_i_10_1 VSS NCO net_1 VPW nfet_05v0 W=0.880000U L=0.600000U
M_i_2_3 CO NCO VSS VPW nfet_05v0 W=1.320000U L=0.600000U
M_i_2_2 VSS NCO CO VPW nfet_05v0 W=1.320000U L=0.600000U
M_i_2_1 CO NCO VSS VPW nfet_05v0 W=1.320000U L=0.600000U
M_i_2_0 VSS NCO CO VPW nfet_05v0 W=1.320000U L=0.600000U
M_i_0_3 S NS VSS VPW nfet_05v0 W=1.320000U L=0.600000U
M_i_0_2 VSS NS S VPW nfet_05v0 W=1.320000U L=0.600000U
M_i_0_1 S NS VSS VPW nfet_05v0 W=1.320000U L=0.600000U
M_i_0_0 VSS NS S VPW nfet_05v0 W=1.320000U L=0.600000U
M_i_7_1 NCO A VDD VNW pfet_05v0 W=1.830000U L=0.500000U
M_i_6_1 VDD B NCO VNW pfet_05v0 W=1.830000U L=0.500000U
M_i_6_0 NCO B VDD VNW pfet_05v0 W=1.830000U L=0.500000U
M_i_7_0 VDD A NCO VNW pfet_05v0 W=1.830000U L=0.500000U
M_i_13_0 NS NCO VDD VNW pfet_05v0 W=1.830000U L=0.500000U
M_i_11_0 net_2_0 A NS VNW pfet_05v0 W=1.830000U L=0.500000U
M_i_12_0 VDD B net_2_0 VNW pfet_05v0 W=1.830000U L=0.500000U
M_i_12_1 net_2_1 B VDD VNW pfet_05v0 W=1.830000U L=0.500000U
M_i_11_1 NS A net_2_1 VNW pfet_05v0 W=1.830000U L=0.500000U
M_i_13_1 VDD NCO NS VNW pfet_05v0 W=1.830000U L=0.500000U
M_i_3_3 CO NCO VDD VNW pfet_05v0 W=1.830000U L=0.500000U
M_i_3_2 VDD NCO CO VNW pfet_05v0 W=1.830000U L=0.500000U
M_i_3_1 CO NCO VDD VNW pfet_05v0 W=1.830000U L=0.500000U
M_i_3_0 VDD NCO CO VNW pfet_05v0 W=1.830000U L=0.500000U
M_i_1_3 S NS VDD VNW pfet_05v0 W=1.830000U L=0.500000U
M_i_1_2 VDD NS S VNW pfet_05v0 W=1.830000U L=0.500000U
M_i_1_1 S NS VDD VNW pfet_05v0 W=1.830000U L=0.500000U
M_i_1_0 VDD NS S VNW pfet_05v0 W=1.830000U L=0.500000U
.ENDS 

********************************************************************************
*                                                                              *
* Cellname:   AND2_X1.                                                         *
*                                                                              *
* Technology: gf018.                                                           *
* Format:     Cdl.                                                             *
*                                                                              *
* Written on scgtcs026             *
* at 11:48:36 on Wed, 19 Mar 2014.                                             *
*                                                                              *
********************************************************************************
.SUBCKT AND2_X1 A1 A2 Z VDD VNW VPW VSS 
*.PININFO A1:I A2:I Z:O VDD:P VNW:P VPW:P VSS:G 
*.EQN Z=(A1 * A2)
M_i_2 net_0 A1 Z_neg VPW nfet_05v0 W=0.660000U L=0.600000U
M_i_3 VSS A2 net_0 VPW nfet_05v0 W=0.660000U L=0.600000U
M_i_0 Z Z_neg VSS VPW nfet_05v0 W=1.320000U L=0.600000U
M_i_4 Z_neg A1 VDD VNW pfet_05v0 W=0.820000U L=0.500000U
M_i_5 VDD A2 Z_neg VNW pfet_05v0 W=0.820000U L=0.500000U
M_i_1 Z Z_neg VDD VNW pfet_05v0 W=1.830000U L=0.500000U
.ENDS 

********************************************************************************
*                                                                              *
* Cellname:   AND2_X2.                                                         *
*                                                                              *
* Technology: gf018.                                                           *
* Format:     Cdl.                                                             *
*                                                                              *
* Written on scgtcs025             *
* at 11:48:35 on Wed, 19 Mar 2014.                                             *
*                                                                              *
********************************************************************************
.SUBCKT AND2_X2 A1 A2 Z VDD VNW VPW VSS 
*.PININFO A1:I A2:I Z:O VDD:P VNW:P VPW:P VSS:G 
*.EQN Z=(A1 * A2)
M_i_2 net_0 A1 Z_neg VPW nfet_05v0 W=1.320000U L=0.600000U
M_i_3 VSS A2 net_0 VPW nfet_05v0 W=1.320000U L=0.600000U
M_i_0_0 Z Z_neg VSS VPW nfet_05v0 W=1.320000U L=0.600000U
M_i_0_1 VSS Z_neg Z VPW nfet_05v0 W=1.320000U L=0.600000U
M_i_4 Z_neg A1 VDD VNW pfet_05v0 W=1.640000U L=0.500000U
M_i_5 VDD A2 Z_neg VNW pfet_05v0 W=1.640000U L=0.500000U
M_i_1_0 Z Z_neg VDD VNW pfet_05v0 W=1.830000U L=0.500000U
M_i_1_1 VDD Z_neg Z VNW pfet_05v0 W=1.830000U L=0.500000U
.ENDS 

********************************************************************************
*                                                                              *
* Cellname:   AND2_X4.                                                         *
*                                                                              *
* Technology: gf018.                                                           *
* Format:     Cdl.                                                             *
*                                                                              *
* Written on scgtcs025             *
* at 11:48:35 on Wed, 19 Mar 2014.                                             *
*                                                                              *
********************************************************************************
.SUBCKT AND2_X4 A1 A2 Z VDD VNW VPW VSS 
*.PININFO A1:I A2:I Z:O VDD:P VNW:P VPW:P VSS:G 
*.EQN Z=(A1 * A2)
M_i_3_1 net_0_1 A2 VSS VPW nfet_05v0 W=1.320000U L=0.600000U
M_i_2_1 Z_neg A1 net_0_1 VPW nfet_05v0 W=1.320000U L=0.600000U
M_i_2_0 net_0_0 A1 Z_neg VPW nfet_05v0 W=1.320000U L=0.600000U
M_i_3_0 VSS A2 net_0_0 VPW nfet_05v0 W=1.320000U L=0.600000U
M_i_0_3 Z Z_neg VSS VPW nfet_05v0 W=1.320000U L=0.600000U
M_i_0_2 VSS Z_neg Z VPW nfet_05v0 W=1.320000U L=0.600000U
M_i_0_1 Z Z_neg VSS VPW nfet_05v0 W=1.320000U L=0.600000U
M_i_0_0 VSS Z_neg Z VPW nfet_05v0 W=1.320000U L=0.600000U
M_i_5_1 Z_neg A2 VDD VNW pfet_05v0 W=1.640000U L=0.500000U
M_i_4_1 VDD A1 Z_neg VNW pfet_05v0 W=1.640000U L=0.500000U
M_i_4_0 Z_neg A1 VDD VNW pfet_05v0 W=1.640000U L=0.500000U
M_i_5_0 VDD A2 Z_neg VNW pfet_05v0 W=1.640000U L=0.500000U
M_i_1_3 Z Z_neg VDD VNW pfet_05v0 W=1.830000U L=0.500000U
M_i_1_2 VDD Z_neg Z VNW pfet_05v0 W=1.830000U L=0.500000U
M_i_1_1 Z Z_neg VDD VNW pfet_05v0 W=1.830000U L=0.500000U
M_i_1_0 VDD Z_neg Z VNW pfet_05v0 W=1.830000U L=0.500000U
.ENDS 

********************************************************************************
*                                                                              *
* Cellname:   AND3_X1.                                                         *
*                                                                              *
* Technology: gf018.                                                           *
* Format:     Cdl.                                                             *
*                                                                              *
* Written on scgtcs024             *
* at 11:48:19 on Wed, 19 Mar 2014.                                             *
*                                                                              *
********************************************************************************
.SUBCKT AND3_X1 A1 A2 A3 Z VDD VNW VPW VSS 
*.PININFO A1:I A2:I A3:I Z:O VDD:P VNW:P VPW:P VSS:G 
*.EQN Z=((A1 * A2) * A3)
M_i_2 net_0 A1 Z_neg VPW nfet_05v0 W=0.660000U L=0.600000U
M_i_3 net_1 A2 net_0 VPW nfet_05v0 W=0.660000U L=0.600000U
M_i_4 VSS A3 net_1 VPW nfet_05v0 W=0.660000U L=0.600000U
M_i_0 Z Z_neg VSS VPW nfet_05v0 W=1.320000U L=0.600000U
M_i_5 VDD A1 Z_neg VNW pfet_05v0 W=0.730000U L=0.500000U
M_i_6 Z_neg A2 VDD VNW pfet_05v0 W=0.730000U L=0.500000U
M_i_7 VDD A3 Z_neg VNW pfet_05v0 W=0.730000U L=0.500000U
M_i_1 Z Z_neg VDD VNW pfet_05v0 W=1.830000U L=0.500000U
.ENDS 

********************************************************************************
*                                                                              *
* Cellname:   AND3_X2.                                                         *
*                                                                              *
* Technology: gf018.                                                           *
* Format:     Cdl.                                                             *
*                                                                              *
* Written on scgtcs008             *
* at 11:48:15 on Wed, 19 Mar 2014.                                             *
*                                                                              *
********************************************************************************
.SUBCKT AND3_X2 A1 A2 A3 Z VDD VNW VPW VSS 
*.PININFO A1:I A2:I A3:I Z:O VDD:P VNW:P VPW:P VSS:G 
*.EQN Z=((A1 * A2) * A3)
M_i_2 net_0 A1 Z_neg VPW nfet_05v0 W=1.320000U L=0.600000U
M_i_3 net_1 A2 net_0 VPW nfet_05v0 W=1.320000U L=0.600000U
M_i_4 VSS A3 net_1 VPW nfet_05v0 W=1.320000U L=0.600000U
M_i_0_0 Z Z_neg VSS VPW nfet_05v0 W=1.320000U L=0.600000U
M_i_0_1 VSS Z_neg Z VPW nfet_05v0 W=1.320000U L=0.600000U
M_i_5 VDD A1 Z_neg VNW pfet_05v0 W=1.460000U L=0.500000U
M_i_6 Z_neg A2 VDD VNW pfet_05v0 W=1.460000U L=0.500000U
M_i_7 VDD A3 Z_neg VNW pfet_05v0 W=1.460000U L=0.500000U
M_i_1_0 Z Z_neg VDD VNW pfet_05v0 W=1.830000U L=0.500000U
M_i_1_1 VDD Z_neg Z VNW pfet_05v0 W=1.830000U L=0.500000U
.ENDS 

********************************************************************************
*                                                                              *
* Cellname:   AND3_X4.                                                         *
*                                                                              *
* Technology: gf018.                                                           *
* Format:     Cdl.                                                             *
*                                                                              *
* Written on scgtcs027             *
* at 11:48:16 on Wed, 19 Mar 2014.                                             *
*                                                                              *
********************************************************************************
.SUBCKT AND3_X4 A1 A2 A3 Z VDD VNW VPW VSS 
*.PININFO A1:I A2:I A3:I Z:O VDD:P VNW:P VPW:P VSS:G 
*.EQN Z=((A1 * A2) * A3)
M_i_4_0 net_1_1 A3 VSS VPW nfet_05v0 W=1.320000U L=0.600000U
M_i_3_1 net_0_1 A2 net_1_1 VPW nfet_05v0 W=1.320000U L=0.600000U
M_i_2_1 Z_neg A1 net_0_1 VPW nfet_05v0 W=1.320000U L=0.600000U
M_i_2_0 net_0_0 A1 Z_neg VPW nfet_05v0 W=1.320000U L=0.600000U
M_i_3_0 net_1_0 A2 net_0_0 VPW nfet_05v0 W=1.320000U L=0.600000U
M_i_4_1 VSS A3 net_1_0 VPW nfet_05v0 W=1.320000U L=0.600000U
M_i_0_3 Z Z_neg VSS VPW nfet_05v0 W=1.320000U L=0.600000U
M_i_0_2 VSS Z_neg Z VPW nfet_05v0 W=1.320000U L=0.600000U
M_i_0_1 Z Z_neg VSS VPW nfet_05v0 W=1.320000U L=0.600000U
M_i_0_0 VSS Z_neg Z VPW nfet_05v0 W=1.320000U L=0.600000U
M_i_7_0 Z_neg A3 VDD VNW pfet_05v0 W=1.460000U L=0.500000U
M_i_6_1 VDD A2 Z_neg VNW pfet_05v0 W=1.460000U L=0.500000U
M_i_5_1 Z_neg A1 VDD VNW pfet_05v0 W=1.460000U L=0.500000U
M_i_5_0 VDD A1 Z_neg VNW pfet_05v0 W=1.460000U L=0.500000U
M_i_6_0 Z_neg A2 VDD VNW pfet_05v0 W=1.460000U L=0.500000U
M_i_7_1 VDD A3 Z_neg VNW pfet_05v0 W=1.460000U L=0.500000U
M_i_1_3 Z Z_neg VDD VNW pfet_05v0 W=1.830000U L=0.500000U
M_i_1_2 VDD Z_neg Z VNW pfet_05v0 W=1.830000U L=0.500000U
M_i_1_1 Z Z_neg VDD VNW pfet_05v0 W=1.830000U L=0.500000U
M_i_1_0 VDD Z_neg Z VNW pfet_05v0 W=1.830000U L=0.500000U
.ENDS 

********************************************************************************
*                                                                              *
* Cellname:   AND4_X1.                                                         *
*                                                                              *
* Technology: gf018.                                                           *
* Format:     Cdl.                                                             *
*                                                                              *
* Written on scgtcs026             *
* at 11:48:02 on Wed, 19 Mar 2014.                                             *
*                                                                              *
********************************************************************************
.SUBCKT AND4_X1 A1 A2 A3 A4 Z VDD VNW VPW VSS 
*.PININFO A1:I A2:I A3:I A4:I Z:O VDD:P VNW:P VPW:P VSS:G 
*.EQN Z=(((A1 * A2) * A3) * A4)
M_i_2 net_0 A1 Z_neg VPW nfet_05v0 W=0.660000U L=0.600000U
M_i_3 net_1 A2 net_0 VPW nfet_05v0 W=0.660000U L=0.600000U
M_i_4 net_2 A3 net_1 VPW nfet_05v0 W=0.660000U L=0.600000U
M_i_5 VSS A4 net_2 VPW nfet_05v0 W=0.660000U L=0.600000U
M_i_0 Z Z_neg VSS VPW nfet_05v0 W=1.320000U L=0.600000U
M_i_6 Z_neg A1 VDD VNW pfet_05v0 W=0.640000U L=0.500000U
M_i_7 VDD A2 Z_neg VNW pfet_05v0 W=0.640000U L=0.500000U
M_i_8 Z_neg A3 VDD VNW pfet_05v0 W=0.640000U L=0.500000U
M_i_9 VDD A4 Z_neg VNW pfet_05v0 W=0.640000U L=0.500000U
M_i_1 Z Z_neg VDD VNW pfet_05v0 W=1.830000U L=0.500000U
.ENDS 

********************************************************************************
*                                                                              *
* Cellname:   AND4_X2.                                                         *
*                                                                              *
* Technology: gf018.                                                           *
* Format:     Cdl.                                                             *
*                                                                              *
* Written on scgtcs026             *
* at 11:48:04 on Wed, 19 Mar 2014.                                             *
*                                                                              *
********************************************************************************
.SUBCKT AND4_X2 A1 A2 A3 A4 Z VDD VNW VPW VSS 
*.PININFO A1:I A2:I A3:I A4:I Z:O VDD:P VNW:P VPW:P VSS:G 
*.EQN Z=(((A1 * A2) * A3) * A4)
M_i_2 net_0 A1 Z_neg VPW nfet_05v0 W=1.320000U L=0.600000U
M_i_3 net_1 A2 net_0 VPW nfet_05v0 W=1.320000U L=0.600000U
M_i_4 net_2 A3 net_1 VPW nfet_05v0 W=1.320000U L=0.600000U
M_i_5 VSS A4 net_2 VPW nfet_05v0 W=1.320000U L=0.600000U
M_i_0_0 Z Z_neg VSS VPW nfet_05v0 W=1.320000U L=0.600000U
M_i_0_1 VSS Z_neg Z VPW nfet_05v0 W=1.320000U L=0.600000U